/*--------------------------------*- C++ -*----------------------------------*\
| solids4foam: solid mechanics and fluid-solid interaction simulations        |
| Version:     v2.0                                                           |
| Web:         https://solids4foam.github.io                                  |
| Disclaimer:  This offering is not approved or endorsed by OpenCFD Limited,  |
|              producer and distributor of the OpenFOAM software via          |
|              www.openfoam.com, and owner of the OPENFOAM® and OpenCFD®      |
|              trade marks.                                                   |
\*---------------------------------------------------------------------------*/
FoamFile
{
    version     2.0;
    format      ascii;
    class       dictionary;
    object      perturbMeshPointsDict;
}
// * * * * * * * * * * * * * * * * * * * * * * * * * * * * * * * * * * * * * //

// Perturn by 30% of the local minimum edge length in the X and Y directions
scaleFactor (0.3 0.3 0);

// Gaussian or uniform random distribution
Gaussian    no;

// Seed for random number generator
seed        1;

// Minimum cosine to find feature edges
// Points on feature edges are not moved
minCos      0.7;

// Names of patches which should not be perturbed
fixedPatches
(
    // Add patch names here
);

// Optional: maximum number of corrections iterations
// Defaults to 1000
//maxIter 1000;

// Optional: local motion rescale factor for applying corrections
// Defaults to 0.8
//beta 0.8;

// ************************************************************************* //
