/*--------------------------------*- C++ -*----------------------------------*\
| solids4foam: solid mechanics and fluid-solid interaction simulations        |
| Version:     v2.0                                                           |
| Web:         https://solids4foam.github.io                                  |
| Disclaimer:  This offering is not approved or endorsed by OpenCFD Limited,  |
|              producer and distributor of the OpenFOAM software via          |
|              www.openfoam.com, and owner of the OPENFOAM® and OpenCFD®      |
|              trade marks.                                                   |
\*---------------------------------------------------------------------------*/
FoamFile
{
    version     2.0;
    format      ascii;
    class       dictionary;
    object      mechanicalProperties;
}
// * * * * * * * * * * * * * * * * * * * * * * * * * * * * * * * * * * * * * //

planeStress     no;

mechanical
(
    steel
    {
        type            poroMechanicalLaw;
        rho             rho [1 -3 0 0 0 0 0] 2650;
        biotCoeff       biotCoeff [0 0 0 0 0 0 0] 1.0;
        effectiveStressMechanicalLaw
        {
            type            anisotropicBiotElastic;

            // Young's modulii (in Pa)
            Ex              1.2e7;
            Ey              1.2e7;
            Ez              2e7;

            // Poisson's ratios (dimenionless)
            nuxy            0.2;
            nuyz            0.24;
            nuzx            0.4;

            // Shear modulii (in Pa)
            Gxy             0.5e7;
            Gyz             1.2e7;
            Gzx             1.2e7;
        }
    }
);

// ************************************************************************* //

// soilProperties from minigeotechfoam

//   rho             rho [1 -3 0 0 0 0 0] 7854;

//   Ex             1.2e7;
//   Ey             1.2e7;
//   Ez             2e7;
//   nuxy           0.2;
//   nuyz           0.24;
//   nuzx           0.4;

//   Gxy           0.5e7;
//   Gyz           1.2e7;
//   Gzx           1.2e7; // para1

// kx               kx [ 0 1 -1 0 0 0 0 ] 0.001;
// ky               ky [ 0 1 -1 0 0 0 0 ] 0.001;
// kz               kz [ 0 1 -1 0 0 0 0 ] 0.001;

// K               K [ 1 -1 -2 0 0 0 0 ] 2e9;

// Sr           	Sr [ 0 0 0 0 0 0 0 ] 0.98;

// p0           	p0 [ 1 -1 -2 0 0 0 0 ] 1e5;

// gamma_w           gamma_w [ 1 -2 -2 0 0 0 0 ] 1e4;
// gamma_s           gamma_s [ 1 -2 -2 0 0 0 0 ] 2e4;

// K0          K0 [ 0 0 0 0 0 0 0 ] 0.5;

// n           	n [ 0 0 0 0 0 0 0 ] 0.3;

// //wave parameters for calculating liquefaction risk
// T           T [ 0 0 1 0 0 0 0 ] 12.5;
// L           L [ 0 1 0 0 0 0 0 ] 160;
// pb0         pb0 [ 1 -1 -2 0 0 0 0 ] 0.12e5;

// planeStress     no;

// model2D        no;
// wave standingWave;
