/*--------------------------------*- C++ -*----------------------------------*\
| =========                 |                                                 |
| \\      /  F ield         | foam-extend: Open Source CFD                    |
|  \\    /   O peration     | Version:     3.2                                |
|   \\  /    A nd           | Web:         http://www.foam-extend.org         |
|    \\/     M anipulation  | For copyright notice see file Copyright         |
\*---------------------------------------------------------------------------*/
FoamFile
{
    version     2.0;
    format      ascii;
    class       dictionary;
    location    "constant";
    object      solidProperties;
}
// * * * * * * * * * * * * * * * * * * * * * * * * * * * * * * * * * * * * * //

solidModel     poroLinearGeometry;

poroLinearGeometryCoeffs
{
    // Maximum number of momentum correctors
    nCorrectors     1000;

    // Solution tolerance for displacement
    solutionTolerance 1e-06;

    // Alternative solution tolerance for displacement
    alternativeTolerance 1e-07;

    // Material law solution tolerance
    materialTolerance 1e-05;

    // Write frequency for the residuals
    infoFrequency   10;

    // Poroelastic properties: defined here for now
    hydraulicConductivity  hydraulicConductivity [0 1 -1 0 0 0 0] 1e-3;
    porosity               porosity [0 0 0 0 0 0 0] 0.2;
    waterSpecificWeight    waterSpecificWeight [1 -2 -2 0 0 0 0] 9.807e+03;
    degreeOfSaturation     degreeOfSaturation [0 0 0 0 0 0 0] 0.9;
    waterBulkModulus       waterBulkModulus [1 -1 -2 0 0 0 0] 2.15e+09;
}


// ************************************************************************* //
