/*--------------------------------*- C++ -*----------------------------------*\
| =========                 |                                                 |
| \\      /  F ield         | OpenFOAM Extend Project: Open Source CFD        |
|  \\    /   O peration     | Version:  1.6-ext                               |
|   \\  /    A nd           | Web:      www.extend-project.de                 |
|    \\/     M anipulation  |                                                 |
\*---------------------------------------------------------------------------*/
FoamFile
{
    version     2.0;
    format      ascii;
    class       volScalarField;
    location    "0";
    object      p;
}
// * * * * * * * * * * * * * * * * * * * * * * * * * * * * * * * * * * * * * //

dimensions      [1 -1 -2 0 0 0 0];

internalField   uniform 0;

boundaryField
{
    right
    {
        type            symmetryPlane;
    }

    left
    {
        type            zeroGradient;
        // type            fixedValue;
        // value           uniform 1;
    }

    front
    {
        type            empty;
    }

    soilStructureInterface
    {
        type            fixedValue;
        value           uniform 0;
    }

    back
    {
        type            empty;
    }

    soilDomainBottom
    {
        type            zeroGradient;
    }

    ground
    {
        type            fixedValue;
        value           uniform 0;
    }
}

// ************************************************************************* //
