/*--------------------------------*- C++ -*----------------------------------*\
| solids4foam: solid mechanics and fluid-solid interaction simulations        |
| Version:     v2.0                                                           |
| Web:         https://solids4foam.github.io                                  |
| Disclaimer:  This offering is not approved or endorsed by OpenCFD Limited,  |
|              producer and distributor of the OpenFOAM software via          |
|              www.openfoam.com, and owner of the OPENFOAM® and OpenCFD®      |
|              trade marks.                                                   |
\*---------------------------------------------------------------------------*/
FoamFile
{
    version     2.0;
    format      ascii;
    class       volScalarField;
    object      p;
}
// * * * * * * * * * * * * * * * * * * * * * * * * * * * * * * * * * * * * * //

dimensions      [0 2 -2 0 0 0 0];

internalField   uniform 0;

boundaryField
{
    interface
    {
        type         zeroGradient;
        //type       zeroGradientCorrected;
        value        uniform 0;
    }
    outlet
    {
        type        fixedValue;
        //type      fixedValueCorrected;
        value       uniform 0;
    }
    inlet
    {
        type         zeroGradient;
        //type         zeroGradientCorrected;
        value        uniform 0;
    }
    wall
    {
        type         zeroGradient;
        //type         zeroGradientCorrected;
        value        uniform 0;
    }
    frontPlane
    {
        type         empty;
    }
    backPlane
    {
        type         empty;
    }
}

// ************************************************************************* //
