/*--------------------------------*- C++ -*----------------------------------*\
| =========                 |                                                 |
| \\      /  F ield         | OpenFOAM: The Open Source CFD Toolbox           |
|  \\    /   O peration     | Version:  v2012                                 |
|   \\  /    A nd           | Website:  www.openfoam.com                      |
|    \\/     M anipulation  |                                                 |
\*---------------------------------------------------------------------------*/
FoamFile
{
    version     2.0;
    format      ascii;
    class       dictionary;
    location    "system/innerSubset";
    object      fvSchemes;
}
// * * * * * * * * * * * * * * * * * * * * * * * * * * * * * * * * * * * * * //

d2dt2Schemes
{
    default         steadyState;
}

ddtSchemes
{
    default         steadyState;
}

gradSchemes
{
    default         none;
    grad(D)         leastSquares;
}

divSchemes
{
    default         Gauss linear;
}

laplacianSchemes
{
    default         none;
    laplacian(DD,D) Gauss linear corrected;
    laplacian(DDD,DD) Gauss linear corrected;
}

snGradSchemes
{
    default         none;
    snGrad(D)       corrected;
    snGrad(DD)      corrected;
}

interpolationSchemes
{
    default         none;
    interpolate(gammaStabilisation) linear;
    interpolate(impK) harmonic;
    interpolate(grad(D)) linear;
    interpolate(sigma0) linear;
}


// ************************************************************************* //
