/*--------------------------------*- C++ -*----------------------------------*\
| =========                 |                                                 |
| \\      /  F ield         | foam-extend: Open Source CFD                    |
|  \\    /   O peration     | Version:     3.2                                |
|   \\  /    A nd           | Web:         http://www.foam-extend.org         |
|    \\/     M anipulation  | For copyright notice see file Copyright         |
\*---------------------------------------------------------------------------*/
FoamFile
{
    version     2.0;
    format      ascii;
    class       polyBoundaryMesh;
    location    "constant/polyMesh";
    object      boundary;
}
// * * * * * * * * * * * * * * * * * * * * * * * * * * * * * * * * * * * * * //

6
(
    symmz
    {
        type            patch;
        nFaces          3328;
        startFace       114752;
    }
    front
    {
        type            patch;
        nFaces          3328;
        startFace       118080;
    }
    symmx
    {
        type            patch;
        nFaces          480;
        startFace       121408;
    }
    loading
    {
        type            patch;
        nFaces          192;
        startFace       121888;
    }
    fixed
    {
        type            patch;
        nFaces          192;
        startFace       122080;
    }
    tractionFree
    {
        type            patch;
        nFaces          2592;
        startFace       122272;
    }
)

// ************************************************************************* //
