/*--------------------------------*- C++ -*----------------------------------*\
| solids4foam: solid mechanics and fluid-solid interaction simulations        |
| Version:     v2.0                                                           |
| Web:         https://solids4foam.github.io                                  |
| Disclaimer:  This offering is not approved or endorsed by OpenCFD Limited,  |
|              producer and distributor of the OpenFOAM software via          |
|              www.openfoam.com, and owner of the OPENFOAM® and OpenCFD®      |
|              trade marks.                                                   |
\*---------------------------------------------------------------------------*/
FoamFile
{
    version     2.0;
    format      ascii;
    class       dictionary;
    object      createPatchDict;
}
// * * * * * * * * * * * * * * * * * * * * * * * * * * * * * * * * * * * * * //

matchTolerance 1e-3;

pointSync false;

patchInfo
(
    {
        name punchContact;
        dictionary
        {
            type patch;
        }
        constructFrom patches;
        patches ("auto0");
    }
    {
        name cylinderTractionFree;
        dictionary
        {
            type patch;
        }
        constructFrom patches;
        patches ("auto1");
    }
    {
        name symmx;
        dictionary
        {
            type symmetryPlane;
        }
        constructFrom patches;
        patches ("auto2" "auto8");
    }
    {
        name cylinderContact;
        dictionary
        {
            type patch;
        }
        constructFrom patches;
        patches ("auto3");
    }
    {
        name punchLoading;
        dictionary
        {
            type patch;
        }
        constructFrom patches;
        patches ("auto4");
    }
    {
        name cylinderFixed;
        dictionary
        {
            type patch;
        }
        constructFrom patches;
        patches ("auto5");
    }
    {
        name symmy;
        dictionary
        {
            type symmetryPlane;
        }
        constructFrom patches;
        patches ("auto6" "auto7");
    }
);

// ************************************************************************* //
