FoamFile{version     2.0;format      ascii;class       scalarAverageField; object      values;} 0.0
15796
(
70039
70398.6
70357.5
70408.7
70409
70418.4
70430.2
70447.3
70471.6
70503.3
70543
70591.8
70649.4
70716.5
70793.9
70880.9
70978.3
70057.6
70248.9
70244.9
70292.2
70300.4
70311.2
70321
70335.2
70355.2
70382.7
70417.3
70460.4
70511.9
70572.6
70642.7
70722.8
70812.8
70004
70120.9
70144.7
70182.8
70194.8
70205.4
70214
70226.2
70243.2
70266.6
70296.7
70334.7
70380.6
70435.3
70499.2
70572
70655.1
69946.4
70025.7
70054.7
70083.9
70095.7
70104.9
70112
70121.8
70135.5
70155.1
70180.9
70214.2
70254.9
70303.9
70361.9
70428.3
70504.7
69893.8
69946
69970.3
69992.9
70003
70009.8
70014.8
70022
70032.6
70048.5
70070.2
70099
70134.8
70178.4
70230.6
70291.2
70361
69840.4
69875
69895
69910
69917.1
69920.7
69923
69927.3
69934.7
69947.1
69964.8
69989.2
70020.4
70058.8
70105.5
70160.5
70224.4
69789.7
69811.5
69829.2
69835.5
69838.1
69837.8
69837
69838.2
69842.3
69851
69864.9
69885
69911.7
69945.2
69986.6
70035.7
70092.8
69741.5
69755.6
69766.9
69767.5
69765.5
69761.3
69757
69754.7
69755.5
69760.6
69770.5
69786.3
69808.4
69837.1
69873.3
69916.9
69968.3
69696.3
69706.2
69710.3
69705.7
69699
69690.7
69682.8
69677
69674.2
69675.5
69681.5
69693.1
69710.4
69734
69764.8
69802.4
69846.9
69654.9
69661.6
69659.4
69649.8
69638.5
69626.1
69614.5
69605
69598.6
69596
69597.9
69605
69617.4
69635.5
69660.6
69692.2
69729.6
69618.4
69620.8
69613.3
69598.9
69583.2
69566.9
69551.6
69538.5
69528.3
69521.8
69519.5
69522.1
69529.5
69542
69561.1
69586.4
69616.9
69586.4
69584.4
69572.5
69553.8
69534.1
69514
69495
69478
69463.9
69453.3
69446.5
69444.4
69446.7
69453.5
69466.5
69485.6
69509.4
69558.6
69552.7
69536.2
69513.4
69489.6
69465.8
69443.1
69422.5
69404.6
69389.8
69378.2
69371.4
69368.7
69370
69376.9
69389.5
69406.3
69535.2
69526.5
69506.1
69479.2
69451.6
69424.3
69398
69373.7
69352
69332.8
69316
69303.4
69294.9
69289.8
69290.7
69296.9
69306
69516.1
69505.6
69481
69450.4
69419.3
69388.8
69359.1
69330.9
69305.2
69281.8
69260.5
69241.8
69226.2
69213.5
69207.2
69207.3
69209.5
69500.5
69487.3
69458.8
69424.7
69390
69355.8
69322.7
69291.1
69261.3
69233.5
69207.3
69182.9
69160.7
69140.3
69128.4
69121.6
69115.9
69489.9
69473.5
69442.5
69405.2
69367.6
69330.2
69293.3
69257.6
69223.2
69190.5
69158.2
69127.7
69101.3
69076.1
69054.9
69038
69024.2
74606
74486.4
74370.7
74258.9
74151
74047
73946.8
73850.3
73757.6
73668.5
73583.1
73501.1
73422.6
73347.6
73276
73207.8
73143
74287.4
74159.1
74035.2
73915.1
73799
73686.8
73578.4
73473.7
73372.7
73275.3
73181.3
73090.8
73003.6
72919.7
72839.1
72761.8
72687.8
73980.6
73844.8
73713.3
73585.8
73462.4
73342.9
73227.3
73115.3
73006.9
72902
72800.5
72702.2
72607.2
72515.3
72426.6
72341.1
72258.8
73686.6
73544
73405.9
73271.9
73142
73016.1
72894.1
72775.7
72660.9
72549.4
72441.2
72336.2
72234.2
72135.3
72039.4
71946.5
71856.7
73406.1
73257.5
73113.6
72973.9
72838.4
72707
72579.5
72455.6
72335.2
72218.1
72104.2
71993.3
71885.4
71780.4
71678.2
71578.9
71482.5
73139.1
72985.4
72836.4
72691.9
72551.7
72415.7
72283.6
72155.1
72030.1
71908.4
71789.7
71673.9
71561
71450.8
71343.3
71238.5
71136.5
72885.8
72727.8
72574.6
72426.1
72282
72142.2
72006.4
71874.2
71745.5
71620
71497.5
71377.9
71260.9
71146.5
71034.7
70925.5
70819
72646.4
72484.7
72328.1
72176.4
72029.2
71886.5
71747.8
71612.8
71481.3
71353
71227.6
71105
70984.9
70867.4
70752.3
70639.7
70529.6
72420.8
72256.2
72096.8
71942.6
71793.1
71648.2
71507.5
71370.5
71237.1
71106.8
70979.4
70854.8
70732.6
70612.9
70495.5
70380.6
70267.9
72208.8
72041.9
71880.5
71724.5
71573.4
71427
71285
71146.8
71012.2
70880.8
70752.3
70626.6
70503.3
70382.3
70263.7
70147.4
70033.2
72010.4
71841.7
71678.9
71521.7
71369.7
71222.5
71079.8
70941.2
70806.2
70674.5
70545.8
70419.7
70296.1
70174.9
70055.9
69939.3
69824.7
71825.2
71655.3
71491.6
71333.8
71181.4
71034
70891.3
70752.8
70618.1
70486.8
70358.5
70233
70110
69989.4
69871.1
69755
69641
71652.9
71482.4
71318.4
71160.4
71008.1
70861.2
70719
70581.3
70447.5
70317.2
70190.2
70066
69944.2
69825
69708.1
69593.8
69481.6
71493.5
71322.7
71158.6
71000.9
70849.2
70703
70561.8
70425.2
70292.9
70164.5
70039.2
69916.8
69797
69680
69565.8
69454.1
69344.5
71346.3
71175.6
71012
70855
70704.2
70559.1
70419.3
70284.2
70153.9
70027.7
69905
69785.3
69667.8
69553.2
69442.9
69334.2
69225.7
71211.3
71041
70878
70722.1
70572.8
70429.4
70291.4
70158.4
70030.5
69907.5
69787.9
69671
69555.1
69445.4
69337.4
69230.5
69131.7
71087.9
70918.2
70756.5
70602.1
70454.2
70312.8
70176
70045.3
69920.3
69799.4
69682.6
69569.1
69458.4
69351.1
69247.5
69148.6
69056.4
72638.1
72174.2
71732.3
71313.3
70918.4
70548.3
70203.8
69885.2
69592.7
69326.4
69086.1
68871.6
68682.3
68518
68377.4
68259.7
68165.6
72640.8
72176
71733.2
71313.6
70918.2
70547.8
70203.1
69884.5
69592.1
69326.1
69086.2
68872.2
68683.6
68520
68380.2
68263.4
68170.2
72646.7
72181.2
71737.9
71317.9
70922.3
70551.9
70207.3
69889
69597.1
69331.7
69092.6
68879.5
68691.8
68529.3
68390.6
68275
68182.9
72656
72190
71746.3
71326.1
70930.6
70560.4
70216.3
69898.7
69607.6
69343.2
69105.2
68893.2
68706.9
68545.7
68408.5
68294.2
68203.5
72668.6
72202.2
71758.4
71338.4
70943.1
70573.5
70230.2
69913.5
69623.6
69360.4
69123.9
68913.5
68728.7
68569.2
68433.5
68320.9
68231.8
72684.6
72218
71774.3
71354.6
70959.9
70591.1
70248.8
69933.4
69644.9
69383.4
69148.6
68939.9
68757
68599.4
68465.6
68354.8
68267.4
72703.9
72237.3
71793.8
71374.7
70980.9
70613.2
70272.2
69958.3
69671.5
69411.9
69179
68972.5
68791.7
68636.1
68504.3
68395.5
68309.8
72726.5
72260.1
71817.1
71398.7
71005.9
70639.6
70300.2
69988
69703.2
69445.7
69215
69010.8
68832.2
68678.9
68549.3
68442.5
68358.7
72752.5
72286.4
71844.1
71426.7
71035.1
70670.3
70332.6
70022.5
69739.9
69484.6
69256.4
69054.5
68878.3
68727.3
68599.9
68495.2
68413.3
72782
72316.4
71874.8
71458.5
71068.4
70705.2
70369.5
70061.5
69781.2
69528.4
69302.6
69103.3
68929.6
68780.9
68655.7
68553
68472.8
72814.8
72349.8
71909.2
71494.1
71105.5
70744.2
70410.6
70104.9
69827
69576.7
69353.5
69156.8
68985.5
68839
68715.9
68615.4
68536.6
72851.1
72386.8
71947.2
71533.5
71146.5
70787.1
70455.7
70152.3
69877
69629.3
69408.6
69214.3
69045.7
68901.3
68780
68681.6
68604
72890.9
72427.3
71988.8
71576.5
71191.3
70833.9
70504.6
70203.7
69930.8
69685.6
69467.5
69275.7
69109.4
68967.1
68847.5
68750.6
68674.1
72934
72471.2
72033.9
71623.1
71239.6
70884.2
70557.2
70258.6
69988.2
69745.5
69529.8
69340.2
69176.1
69035.7
68917.8
68822.2
68746.3
72980.6
72518.7
72082.6
71673.2
71291.5
70938.1
70613.2
70316.9
70048.8
69808.5
69595.1
69407.6
69245.4
69106.5
68989.8
68895.9
68819.6
73030.6
72569.6
72134.6
71726.7
71346.8
70995.3
70672.5
70378.3
70112.4
69874.2
69662.8
69477.2
69316.5
69179.1
69062.5
68970.4
68893.8
73084
72623.8
72190
71783.6
71405.2
71055.5
70734.7
70442.5
70178.6
69942.3
69732.7
69548.7
69389.4
69252.8
69135.6
69044.9
68968.9
69470
69499.8
69533.7
69571.4
69612.8
69657.4
69705
69755.1
69807.2
69860.9
69915.6
69970.8
70025.9
70080.4
70133.7
70185.4
70234.9
69247.4
69274.3
69305.4
69340.7
69379.8
69422.2
69467.8
69515.9
69566.1
69617.9
69670.6
69723.6
69776.4
69828.4
69879
69927.5
69973.9
69044.2
69068.5
69097.3
69130.5
69167.6
69208.3
69252.2
69298.9
69347.7
69398
69449.3
69500.9
69552.1
69602.4
69651.1
69697.4
69741.5
68860.1
68882.1
68908.8
68940
68975.5
69014.8
69057.5
69103
69150.8
69200.3
69250.7
69301.4
69351.7
69401
69448.6
69493.7
69536.5
68694.5
68714.4
68739.2
68768.9
68803
68841.2
68883
68927.8
68975.1
69024.1
69074.1
69124.5
69174.5
69223.5
69270.8
69315.5
69357.3
68547
68565
68588.1
68616.4
68649.5
68686.9
68728.1
68772.6
68819.6
68868.6
68918.7
68969.3
69019.5
69068.8
69116.5
69161.1
69203.1
68417.3
68433.4
68455.2
68482.3
68514.5
68551.3
68592.3
68636.6
68683.8
68733.2
68783.8
68835.1
68886
68936.1
68984.8
69030.5
69074
68305
68319.6
68340
68366.2
68397.8
68434.2
68475
68519.6
68567.2
68617.2
68668.7
68720.9
68773.1
68824.6
68874.7
68922.4
68968.1
68210.1
68223.2
68242.5
68267.9
68298.9
68335.2
68376.1
68421
68469.3
68520.1
68572.7
68626.4
68680.1
68733.3
68785.5
68835.2
68883.2
68132.5
68144.2
68162.5
68187.2
68217.9
68254.1
68295.2
68340.7
68389.8
68441.7
68495.6
68550.9
68606.4
68661.7
68716.1
68768.2
68818.9
68072.1
68082.8
68100.1
68124.2
68154.6
68190.8
68232.3
68278.4
68328.4
68381.5
68436.9
68493.9
68551.5
68608.9
68666
68720.6
68774.5
68029.1
68038.8
68055.7
68079.1
68109.2
68145.5
68187.3
68234.1
68285.1
68339.5
68396.4
68455.2
68514.8
68574.7
68634.5
68691.7
68749.4
68004.3
68012.8
68028.9
68052
68081.9
68118.3
68160.5
68207.9
68259.9
68315.5
68374
68434.5
68496.3
68558.4
68621
68680.7
68742.5
67997.7
68005.3
68020.6
68043.3
68073.1
68109.5
68152.1
68200.2
68253.1
68309.9
68369.9
68432.2
68496.1
68560.5
68625.8
68688.5
68754.4
68009.9
68016.7
68031.3
68053.6
68083.2
68119.8
68162.7
68211.4
68265.1
68323.1
68384.5
68448.5
68514.4
68581.1
68649.1
68716.7
68784
68041.6
68047.7
68061.7
68083.7
68113.1
68149.7
68192.8
68242
68296.4
68355.4
68418.1
68483.7
68551.7
68621.3
68690.9
68760.8
68832.6
68093.5
68098.8
68112.4
68133.9
68163.1
68199.6
68242.8
68292.3
68347.4
68407.2
68471
68538
68607.6
68678.9
68751.4
68824.6
68904.2
69776.7
69789.2
69813
69807.5
69778.5
69740.8
69699.1
69658.1
69621.4
69581.1
69551.9
69530.4
69509.1
69494.3
69486.1
69481.8
69483.3
70290.6
70117.3
69988.8
69892.8
69823.6
69763.3
69705.1
69657.1
69613.6
69573.6
69542.7
69516.3
69494.6
69479.3
69469
69463.6
69464.8
70253.9
70140.7
70037.8
69946.7
69864.2
69790.8
69721.6
69661
69609
69563.1
69524.8
69493.1
69469
69451.4
69439.7
69433.4
69433.6
70491.9
70286.1
70125.6
69996.4
69888.4
69799.2
69717.8
69648
69588.1
69535.5
69493.5
69459.4
69432.6
69413.5
69400.8
69394.2
69394.5
70503.4
70325.4
70166.8
70026.7
69906.8
69804
69711.6
69632.9
69565.8
69508.6
69461.9
69424.6
69395.5
69374.6
69361.3
69355
69355.7
70556
70356.9
70185.7
70035.3
69904.9
69792.2
69692.2
69606.5
69534
69473.2
69423.2
69384.1
69354
69333.3
69319.6
69314.1
69316.1
70571.1
70369.9
70190.3
70032.2
69893.5
69772.4
69666.6
69576.2
69499.2
69435.5
69383
69341.8
69310.3
69290.5
69275.9
69270.5
69275.3
70572.9
70366.7
70180.3
70016.2
69871.4
69744.2
69634.5
69539.8
69459.4
69393.1
69339
69296.9
69264.7
69246.7
69232.8
69227.1
69235.2
70565.1
70353.3
70160.7
69991.2
69842.1
69709.4
69595.8
69498.1
69415.3
69347.1
69292.1
69249.8
69217.8
69200.9
69189.1
69184.3
69196
70548.9
70331.7
70133.1
69958.1
69805.6
69668.9
69552.1
69452
69367.6
69298.4
69243.2
69201.2
69170
69154.3
69145.5
69143.1
69158.2
70525.5
70302.9
70099.6
69919.3
69762.3
69622.4
69503.2
69401.3
69315.9
69246.2
69191.3
69150.3
69120.5
69106
69101.9
69102.1
69120.2
70496.3
70267.7
70060.5
69875.7
69714.5
69572
69450.6
69347.3
69261.2
69191.6
69137.3
69097.5
69069.2
69055.2
69056.2
69060.1
69081.6
70462.1
70227.2
70015.3
69826.5
69661.1
69516.4
69393.6
69289.3
69203.1
69133.9
69080.6
69042.5
69016.7
69005
69010.5
69020.3
69046.7
70423.7
70182.5
69965.8
69773.2
69604.2
69457.2
69333.2
69228.1
69142
69073.6
69021.9
68986
68963.6
68955.7
68964.3
68981.5
69015.2
70380.8
70133.2
69911.7
69715.4
69543.3
69393.7
69268.6
69163.7
69077.9
69010.8
68961.1
68928.1
68910.2
68907.2
68918
68944.2
68987
70334.3
70080.4
69853.5
69653.6
69479.3
69328.7
69200.6
69094.6
69010.3
68944.5
68897.2
68867.3
68853.3
68856.4
68875.1
68912.5
68967.6
70285.1
70024.7
69792.7
69588.9
69411.4
69259.2
69130.6
69024.9
68940.5
68876.4
68831.4
68804.8
68795.1
68806
68834.8
68880.7
68943.4
71395.4
71373.3
71352.5
71328.9
71312
71301.6
71300.3
71309
71328.4
71359
71400.8
71454.3
71519.2
71595.8
71684.5
71785.2
71897.9
72022.8
72160
72309.7
72472
72647.1
72834.9
73035.6
73249.2
73475.7
73714.9
73966.8
74231.1
74507.5
74795.6
75094.8
75404.7
75723.9
71297
71271
71252
71228
71212
71202
71200.9
71209.6
71228.8
71259
71300.3
71352.9
71416.9
71492.3
71579.7
71679
71790
71913.2
72048.6
72196.4
72356.8
72529.9
72715.7
72914.5
73126.2
73350.8
73588.3
73838.6
74101.5
74376.6
74663.6
74962.1
75271.5
75590.6
71196.9
71167.2
71151.2
71127.4
71112.3
71103
71102.3
71111.3
71130.5
71160.6
71201.4
71253.5
71316.6
71391
71477.2
71575.1
71684.6
71806.1
71939.8
72085.8
72244.3
72415.4
72599.3
72796.1
73005.9
73228.6
73464.4
73713
73974.3
74248.1
74534
74831.6
75140.4
75459.2
71087.4
71061.9
71049.6
71026.7
71012.9
71004.4
71004.5
71014
71033.6
71063.7
71104.3
71156
71218.4
71292
71377.1
71473.7
71581.8
71701.8
71833.7
71977.9
72134.6
72303.8
72485.7
72680.5
72888.4
73109.3
73343.2
73590.1
73849.8
74122.2
74406.9
74703.6
75011.6
75330
70971.2
70955.4
70947.5
70925.6
70913.6
70906.2
70907.5
70917.8
70938.1
70968.5
71009.2
71060.6
71122.5
71195.3
71279.6
71374.9
71481.7
71600.1
71730.4
71872.9
72027.7
72195
72375
72567.9
72773.8
72992.8
73224.9
73470.1
73728.2
73999.1
74282.5
74578.1
74885.3
75203.2
70844.4
70851.9
70844.3
70825
70814.2
70808.3
70811.5
70822.9
70844.2
70875.2
70916.1
70967.4
71028.9
71101.1
71184.6
71278.8
71384.3
71501.2
71630
71770.7
71923.7
72089.2
72267.3
72458.3
72662.3
72879.3
73109.6
73353
73609.5
73879
74161
74455.3
74761.6
75079
70725.7
70745
70736.2
70720.7
70714.4
70710.7
70716.4
70729.5
70752.2
70784
70825.2
70876.6
70937.9
71009.5
71092.2
71185.4
71289.6
71405.2
71532.4
71671.5
71822.7
71986.4
72162.6
72351.7
72553.8
72769
72997.4
73239
73493.8
73761.5
74042
74334.9
74640.8
74957.8
70576.9
70639
70621.1
70616.1
70614.2
70614.2
70622.8
70637.8
70662.1
70694.9
70736.7
70788.2
70849.3
70920.5
71002.6
71094.9
71197.9
71312
71437.7
71575.2
71724.7
71886.6
72061
72248.2
72448.4
72661.8
72888.4
73128.4
73381.6
73648.1
73927.6
74220.5
74524.7
74840.4
70404.4
70526
70488.7
70508.2
70512.4
70518
70530
70547.7
70574
70607.9
70650.4
70702.1
70763.1
70833.8
70915.3
71006.6
71108.5
71221.3
71345.6
71481.5
71629.3
71789.4
71962
72147.4
72345.8
72557.3
72782.1
73020.3
73272
73536.9
73815
74106.1
74409.3
74723.8
72819.5
72494.5
72169.8
71829.3
71455.5
71055.2
70745.4
70037.1
68717.3
72834.8
72548.4
72266.1
71969.2
71683.3
71436.5
71215.2
70973.3
70681.4
72868.1
72529.5
72196.2
71873.2
71555.9
71241.3
70929.4
70603.7
70360.5
72911.7
72595.8
72292.8
72002.1
71727.1
71466.5
71214.7
70968.9
70731.8
72883.6
72557.2
72242.9
71942.2
71656.1
71382.8
71124.4
70890.9
70690.3
72916.4
72599
72295.7
72006.4
71731.5
71468.4
71217.8
70982.5
70767.9
72889.1
72571.1
72266.8
71977.7
71704.6
71446.6
71203.8
70979.3
70775.2
72896
72580.6
72279
71991.9
71719.6
71460.8
71215.8
70987.7
70780.4
72878.2
72563.6
72263.2
71977.3
71707.3
71452.4
71211.4
70985.5
70777
72865.9
72551.6
72251.5
71966.1
71695.9
71440.4
71199.2
70973.4
70764.5
72848.5
72534.2
72234.1
71948.9
71678.7
71423.1
71181.6
70955.1
70745
72829.3
72514.3
72213.6
71927.9
71657.2
71401
71159
70931.7
70720.3
72807.5
72491.3
72189.5
71902.9
71631.4
71374.2
71131.2
70902.9
70690.6
72783.3
72465.6
72162.5
71874.7
71602
71343.8
71099.7
70870.1
70656.4
72756.9
72437.3
72132.6
71843.2
71569.1
71309.6
71064
70832.9
70617.9
72728.4
72406.7
72100
71808.9
71533.2
71272.2
71025
70792.3
70575.6
72698
72373.9
72065
71771.9
71494.4
71231.7
70982.9
70748.4
70530.2
72665.9
72339.3
72028
71732.7
71453
71188.5
70938.2
70702.1
70481.9
72632.4
72302.9
71989.1
71691.4
71409.6
71143
70890.7
70653.4
70431.8
72597.9
72265.4
71948.8
71648.6
71364.5
71095.7
70841.5
70602.1
70378.9
72562.7
72227
71907.5
71604.6
71318
71047
70790.7
70549.6
70324.6
72527.2
72188.1
71865.6
71559.8
71270.7
70997.4
70739
70496
70269.3
72491.8
72149.3
71823.5
71514.9
71223.1
70947.4
70686.9
70442
70213.5
72457.1
72110.9
71781.8
71470.1
71175.6
70897.4
70634.8
70387.9
70157.7
72423.5
72073.4
71741
71426.1
71128.8
70848
70583.2
70334.5
70102.5
72391.4
72037.4
71701.4
71383.3
71083.1
70799.8
70532.7
70282
70048.4
72361.3
72003.3
71663.5
71342.2
71039
70753
70483.7
70231.1
69995.8
72333.6
71971.4
71627.9
71303.2
70996.9
70708.3
70436.8
70182.2
69945.2
72308.7
71942.2
71594.8
71266.6
70957.3
70666
70392.2
70135.8
69897.1
72287
71916
71564.7
71232.9
70920.4
70626.5
70350.4
70092.2
69851.9
72268.7
71893.1
71537.8
71202.4
70886.8
70590.1
70311.8
70051.7
69809.9
72254.1
71873.9
71514.4
71175.4
70856.5
70557
70276.5
70014.6
69771.3
72243.4
71858.4
71494.6
71151.8
70829.7
70527.6
70244.8
69981.1
69736.5
72236.8
71846.9
71478.7
71132.1
70806.7
70501.8
70216.8
69951.5
69705.6
76954.2
76997.9
76785.1
76788.9
76709.8
76705.8
76676.7
76674.2
76671.7
76677
76686
76698.5
76713.6
76730.9
76749.7
76769.9
76791.1
77664.3
77529.6
77268.6
77262
77171
77175.6
77161.2
77170.5
77187.3
77211
77240.2
77273.9
77310.8
77350.6
77392.5
77436.4
77481.8
78071.9
77957.5
77744.7
77722.1
77638.7
77651.1
77651.1
77674.6
77709.7
77753.2
77803.1
77858.8
77918.4
77981.6
78047.6
78116
78186.8
78512.9
78391.3
78197.8
78168.5
78106.1
78127.7
78144
78183.7
78236.9
78300.9
78372.2
78450.5
78533.6
78620.9
78711.8
78805.8
78903.2
78899.1
78768.1
78632.4
78602.2
78566
78600.6
78634.6
78693.4
78766
78850.9
78944.2
79045.5
79152.4
79264.1
79379.4
79499.8
79623.4
79250.4
79115.3
79048.5
79025.1
79017.6
79068
79120.2
79199.5
79292.3
79398.9
79514.6
79639.6
79770.8
79907.7
80049.7
80193.2
80342
79586.4
79439.4
79453.3
79438.5
79461.1
79529
79599.4
79700.5
79813.9
79943.1
80082
80229.9
80384.7
80545.5
80710.9
80879.8
81052.7
79921.1
79781.7
79849.9
79844.2
79897.1
79983.6
80072.7
80197.9
80329.2
80480.3
80641.6
80812.7
80990.9
81175.1
81364
81556.5
81753.2
80292.6
80230.3
80241.8
80252.3
80324.4
80428.4
80535
80681.9
80834.6
81008.5
81192.1
81385.8
81586.6
81793.3
82004.4
82218.7
82437.3
80678.2
80598.9
80627.8
80672.4
80742.9
80862.9
80987.5
81156.3
81329.9
81526.2
81731.5
81946.9
82169
82396.6
82628.2
82861.7
83099.9
81037.9
80965.5
80995.9
81054.9
81145.1
81285.1
81429
81619.4
81813.8
82031.5
82257.7
82493.4
82735.1
82981.8
83231.4
83482.2
83736.3
81372
81314.5
81349.4
81426.3
81534.5
81695.6
81859
82070.5
82285
82523.1
82768.7
83023.2
83282.6
83546.1
83810.7
84076.5
84341.6
81678.5
81649.2
81690.6
81786.6
81912.3
82093.9
82276.9
82508.5
82742.2
82999.2
83262.7
83534.1
83808.7
84086.8
84362.5
84641.6
84911.3
81973.1
81970.6
82022.1
82136.2
82278.4
82480.1
82682
82932.5
83184.4
83458.8
83738.4
84024.4
84311.5
84602.2
84884
85177.2
85440.5
82260.4
82279.1
82343.3
82475.1
82633.1
82853.7
83074
83341.9
83610.8
83901
84194.7
84493.2
84789.8
85089.4
85376.4
85678.1
85929.3
82540.4
82575.4
82654.6
82801.4
82978.3
83214.9
83451.8
83735.6
84019.5
84321.6
84624.3
84930.9
85230.5
85531.1
85819.4
86114.5
86370.2
82812.2
82860.6
82955.5
83116.9
83311.6
83561.7
83814.9
84111.4
84405.4
84711.5
85019.3
85329.6
85635.6
85943.3
86236
86527.3
86779.3
77296.5
77933.7
78582.4
79239.6
79902
80565.6
81227.1
81882.7
82528.9
83162
83778.8
84376
84950.7
85500.3
86022.3
86514.7
86975.8
77232.2
77871.4
78522.3
79181.9
79846.9
80513.2
81177.6
81836.5
82486
83122.6
83742.9
84343.6
84921.8
85474.6
85999.7
86495.1
86958.8
77173.5
77814.6
78467.7
79129.8
79798
80467.4
81134.9
81797.1
82449.9
83090
83713.6
84317.5
84898.7
85454.4
85982.1
86479.7
86945.3
77120.2
77763.6
78419.1
79084
79755.9
80428.3
81099.1
81764.5
82420.7
83064
83690.7
84297.6
84881.5
85439.5
85969.1
86468.3
86935.1
77072.3
77718.2
78376.4
79043.6
79720.6
80395.8
81069.8
81738.6
82398.1
83044.5
83674.2
84283.7
84869.8
85429.7
85960.8
86461
86928.1
77029.7
77678.4
78339.8
79011
79689.9
80369.2
81046.8
81719.1
82381.9
83031.3
83663.7
84275.6
84863.6
85424.9
85956.9
86457.3
86924.2
76991.9
77643.7
78308.7
78983.6
79665.4
80348.5
81030
81705.7
82371.7
83024.1
83659
84272.9
84862.4
85424.6
85956.9
86457.1
86922.9
76958.7
77613.9
78282.6
78961.4
79646.8
80333.8
81018.9
81698.2
82367.4
83022.5
83659.7
84275.3
84865.9
85428.6
85960.7
86459.9
86923.9
76929.8
77588.7
78261.2
78944.1
79633.4
80324.4
81013.4
81696.2
82368.4
83026.2
83665.4
84282.5
84873.8
85436.4
85967.6
86465.3
86926.8
76904.7
77567.5
78244.2
78931.5
79625
80320.1
81012.9
81699.2
82374.5
83034.6
83675.7
84293.8
84885.4
85447.5
85977.3
86472.7
86931.1
76883.1
77550.2
78231.3
78923.1
79621.1
80320.4
81017.1
81706.8
82385
83047.4
83690
84308.8
84900.3
85461.4
85989.2
86481.8
86936.3
76864.6
77536.1
78222
78918.7
79621.3
80324.9
81025.6
81718.7
82399.7
83064.1
83707.9
84326.9
84917.9
85477.4
86002.7
86491.7
86941.7
76848.8
77525.1
78215.9
78917.8
79625.3
80333.3
81038
81734.5
82418.1
83084.3
83729
84348
84937.8
85495.3
86017.3
86502
86946.7
76835.4
77516.7
78212.7
78920.2
79632.8
80345.3
81054
81753.7
82439.9
83107.6
83752.8
84371.2
84958.8
85513.9
86032
86511.4
86950.2
76823.9
77510.8
78212
78925.7
79643.6
80360.7
81073.2
81776.2
82464.3
83133.2
83778.7
84396.7
84984
85534.1
86047.2
86519.6
86951.5
76814.2
77507
78214.1
78933.7
79657
80378.8
81095.1
81801.4
82491.7
83161.4
83806.1
84421.4
85003.6
85550.4
86056.6
86520.1
86949.2
76806.1
77505.5
78219.2
78944.9
79674.1
80402
81122.5
81832.6
82524.7
83194.6
83838.1
84451.1
85029.9
85571.8
86071.4
86520
86940.5
89450.8
89442.3
89425.2
89399.3
89364.8
89321.7
89270
89209.9
89141.5
89064.9
88980.3
88887.8
88787.7
88680.2
88565.4
88442
88313.3
89581.6
89573.8
89557.6
89533.1
89500.4
89459.4
89410.2
89353
89287.8
89214.7
89134
89045.7
88950
88847.1
88737.1
88620
88496.4
89680.3
89672.9
89657.7
89634.6
89603.6
89564.8
89518.2
89464
89402.3
89333
89256.5
89172.7
89081.9
88984.1
88879.6
88768.4
88650.7
89746
89739
89724.6
89702.8
89673.6
89637.1
89593.3
89542.3
89484.2
89419
89346.9
89268
89182.3
89090.2
88991.6
88886.6
88775.4
89778.2
89771.5
89757.8
89737.3
89710
89675.8
89634.9
89587.2
89532.9
89472
89404.7
89330.9
89250.9
89164.6
89072.3
88974
88869.5
89776.2
89769.6
89756.7
89737.5
89711.9
89680.1
89642.2
89598
89547.7
89491.4
89429
89360.7
89286.5
89206.5
89120.8
89029.5
88932.2
89739.7
89732.9
89720.6
89702.6
89678.9
89649.5
89614.6
89574.1
89528
89476.4
89419.2
89356.6
89288.5
89215
89136.3
89052.3
88962.5
89666.5
89659.7
89648.3
89631.5
89609.8
89583.1
89551.5
89514.8
89473.1
89426.4
89374.6
89317.9
89256.2
89189.5
89117.9
89041.6
88959.6
89559.3
89552.3
89540.9
89525.3
89505.5
89481.3
89452.8
89420
89382.6
89340.9
89294.7
89244.1
89189
89129.3
89065.1
88996.6
88922.5
89417.2
89409.6
89398.4
89383.7
89365.4
89343.5
89318
89288.9
89256.1
89219.5
89179
89134.6
89086.2
89033.7
88977.1
88916.4
88850.7
89237.3
89229.1
89218.2
89204.5
89188
89168.7
89146.5
89121.4
89093.2
89061.8
89027.1
88989
88947.4
88902.2
88853.2
88800.7
88743.7
89021.2
89012.3
89001.5
88988.7
88973.9
88957.1
88938.2
88917
88893.5
88867.4
88838.5
88806.9
88772.1
88734.2
88692.9
88648.9
88600.7
88769.1
88759.3
88748.4
88736.4
88723.3
88708.9
88693.2
88676
88657
88636.2
88613.3
88587.9
88560
88529.4
88496.1
88459.7
88421.8
88481
88470.1
88459
88447.7
88436.1
88424.2
88411.6
88398.4
88384.1
88368.5
88351.4
88332.5
88311.3
88287.5
88261.2
88231.6
88200.7
88156.5
88144.4
88133
88122.3
88112.1
88102.5
88093.1
88083.7
88074
88063.7
88052.4
88039.8
88025.4
88008.9
87989.2
87968.8
87942.3
87796.2
87782.7
87770.8
87760.6
87751.8
87744.4
87738
87732.4
87727.3
87722.1
87716.5
87709.9
87702
87692.1
87680.1
87664.3
87648.8
87402.9
87387.9
87375.5
87365.5
87358
87352.6
87349.1
87347.2
87346.4
87346.2
87346.3
87346
87344.7
87341.9
87336.2
87325.9
87316.4
85272
85467
85653.6
85831.9
86000.6
86159
86307
86444.4
86570.6
86685.4
86788.4
86879.2
86957.3
87022.6
87074.6
87113.2
87138.7
85483.6
85680.3
85867.8
86046.1
86214.1
86370.8
86516.3
86650.3
86772
86881.3
86977.7
87060.8
87130.1
87185.5
87226.4
87252.8
87264.5
85692.1
85890.1
86078
86256
86422.7
86577.3
86719.6
86849.4
86966
87068.9
87157.9
87232.4
87291.9
87336.4
87365.2
87378
87374.9
85897.3
86096.3
86284.4
86461.6
86626.5
86778.3
86916.9
87041.9
87152.5
87248.5
87329.2
87394.3
87443.2
87475.7
87491.4
87489.6
87470.7
86099.1
86298.8
86486.7
86662.6
86825.3
86973.8
87108.1
87227.6
87331.7
87419.9
87491.6
87546.5
87583.8
87603.6
87605.2
87587.7
87552
86297.3
86497.4
86684.7
86859
87018.9
87163.7
87293
87406.4
87503.3
87582.9
87644.9
87688.7
87713.6
87719.6
87706.3
87671.7
87618.5
86491.7
86691.9
86878.3
87050.5
87207.2
87347.6
87471.5
87578.2
87667.1
87737.5
87788.9
87820.9
87832.5
87823.8
87794.6
87741.9
87669
86682.1
86882.1
87067.2
87236.9
87389.9
87525.5
87643.3
87742.7
87822.9
87883.4
87923.5
87942.6
87940
87915.6
87869.3
87798.7
87705
86868.3
87067.8
87251.2
87418
87566.9
87697.2
87808.3
87899.8
87970.7
88020.5
88048.5
88054
88036.2
87995.3
87931.1
87840.8
87726.5
87050.1
87248.8
87430.2
87593.7
87738
87862.4
87966.4
88049.3
88110.2
88148.6
88163.6
88154.8
88120.6
88062.5
87979.7
87869.2
87733.7
87227.2
87424.8
87603.9
87763.7
87903
88021.1
88117.3
88191
88241.3
88267.6
88269.1
88245
88195
88118.6
88015.4
87883.7
87725.1
87399.3
87595.7
87772.2
87927.9
88061.8
88173
88261
88325
88364.1
88377.6
88364.9
88324.9
88257.9
88160.9
88036.9
87884.2
87701.6
87566.3
87761.2
87934.7
88086
88214.1
88318.1
88397.3
88451
88478.3
88478.5
88450.9
88393.8
88308.6
88191.6
88045.7
87869.5
87659.3
87727.9
87921
88091.4
88237.9
88359.8
88456.2
88526.2
88569.1
88584
88570.2
88527
88452.8
88348.7
88211
88040.7
87835.6
87609.4
87883.7
88075
88241.9
88383.5
88498.9
88587.1
88647.4
88678.9
88680.9
88652.5
88592.8
88499.8
88377.4
88217.1
88024
87794.1
87539.7
88033.7
88222.8
88386
88522.2
88630.9
88710.8
88761.1
88780.9
88769.5
88726
88649.2
88538.6
88394.6
88215.9
87997.2
87738.1
87461.5
88177.4
88364.6
88523.9
88654.6
88756
88827
88866.7
88874.3
88848.9
88789.5
88695.6
88566.2
88401.3
88196.9
87951.5
87669.1
87357.3
85131.4
85449.2
85539.6
85441.6
85345.7
85238.5
85119
84972.3
84807.8
84630.3
84440.3
84238.4
84025.6
83802.4
83569.1
83325.9
83073.5
86169.7
85995.2
85808
85659.2
85552.9
85404.1
85245.2
85083.3
84910.2
84725.9
84530
84322.6
84104.5
83875.9
83637.1
83388.3
83130.5
86115.3
85988.9
85890.7
85772.8
85643.7
85511.3
85366
85207.1
85034.7
84849.7
84652.7
84443.7
84223.5
83992.4
83750.5
83497.8
83235.3
86335.1
86222.1
86082.3
85947.4
85817.9
85673.8
85521.5
85359.2
85185.7
85000.6
84804.2
84596.4
84377.5
84148.1
83908.6
83658.9
83401
86411.3
86308.3
86199.8
86086.4
85962.1
85825.8
85678.4
85520.4
85351.4
85170.8
84978.8
84775.5
84561.1
84336.2
84101.5
83856.6
83603
86520.8
86435.6
86337.5
86232.8
86116.5
85986.9
85846.8
85695.6
85533.3
85359.5
85174.4
84978.4
84771.6
84554.4
84328.1
84092.6
83850.3
86618.7
86547.3
86463.8
86372.3
86266.5
86148
86018.3
85877.1
85724.4
85560.1
85384.5
85197.9
85000.5
84792.5
84575.3
84348
84112.3
86710.6
86655.3
86587.8
86510.4
86417.5
86311.9
86194.3
86064.8
85923.5
85770.6
85606.1
85430.6
85244.4
85047.4
84841.3
84625.7
84402.7
86796.1
86757.1
86704.9
86642.7
86564.9
86473.6
86369.9
86253.9
86125.8
85985.8
85833.9
85670.9
85496.9
85311.7
85117.4
84913.3
84697.6
86875.4
86853.6
86817.8
86771.4
86709.3
86633.3
86544.4
86442.9
86329
86203
86064.8
85915.2
85754.3
85581.7
85399.9
85207
85001.7
86946
86941.7
86922.5
86892.7
86847.6
86787.8
86714.8
86628.8
86530.1
86418.9
86295.2
86159.7
86012.7
85853.1
85683.8
85503.4
85309.9
87008
87021.7
87019.1
87006.6
86979.1
86936
86879.5
86809.7
86726.8
86631.1
86522.6
86401.6
86269.1
86122.9
85966
85797.6
85617.8
87059.2
87093
87108.8
87112.1
87102.1
87076.4
87036.9
86983.7
86917.2
86837.4
86744.4
86638.3
86520.8
86385.8
86242.7
86089.1
85921.7
87099.1
87151.3
87186.1
87207.6
87215.4
87207.4
87185.4
87149.4
87099.7
87036.3
86959.1
86867.6
86765.8
86646.3
86515.8
86370.9
86223.2
87128.2
87198.4
87252.6
87292.8
87318
87328
87323.8
87305.3
87272.7
87226
87165.1
87088.4
87002.8
86895.7
86777.6
86644.7
86508.8
87145.2
87234.3
87307.3
87365.7
87409.1
87437.4
87450.7
87449.6
87433.1
87401.9
87355.5
87293.3
87220
87124.3
87010.1
86890.8
86779.4
87149
87257.7
87350.3
87427.9
87490.6
87537.7
87567.1
87583.2
87581.6
87568.1
87540.4
87494.5
87434
87356
87256
87152.3
87039.9
73147.4
73169.8
73209.6
73244.4
73220
73246.4
73219.5
73224
73205.8
73193.6
73176.5
73158.1
73137.5
73115.1
73090.7
73064.6
73036.8
73007.6
72977.2
72946
72914.3
72882.5
72851
72820.4
72791
72763.3
72737.7
72714.7
72694.6
72677.8
72664.5
72655.2
72649.8
72648.7
73523.4
73549.5
73561.8
73596.2
73568.7
73590.5
73562.9
73565.4
73546.6
73534.5
73517.7
73500.4
73481.4
73460.9
73438.9
73415.4
73390.5
73364.6
73337.6
73310.1
73282.3
73254.6
73227.4
73201.2
73176.4
73153.4
73132.8
73114.9
73100
73088.6
73081
73077.3
73077.9
73082.9
73908.3
73935.8
73926.2
73960.3
73928.9
73946.5
73918.1
73918.5
73899.1
73887.3
73871.5
73855.6
73838.4
73820.2
73800.8
73780.3
73758.7
73736.3
73713.2
73689.7
73666.1
73642.9
73620.3
73599
73579.2
73561.5
73546.3
73533.9
73524.8
73519.4
73517.8
73520.4
73527.4
73539.1
74295.1
74330.1
74303.8
74335.8
74300
74313.4
74284.2
74282.8
74263.7
74252.4
74237.3
74222.9
74207.9
74192.3
74175.9
74158.7
74140.8
74122.3
74103.3
74084.2
74065.3
74046.9
74029.5
74013.4
73999.1
73987.1
73977.7
73971.3
73968.5
73969.4
73974.4
73983.8
73997.7
74016.6
74688
74732.1
74697.1
74721.5
74682.1
74690.4
74660.1
74656.6
74637.4
74626.7
74613.4
74601.1
74588.6
74576
74562.9
74549.5
74535.6
74521.4
74507
74492.7
74478.8
74465.7
74453.8
74443.4
74435
74429.1
74426
74426.1
74430
74437.8
74449.8
74466.5
74487.9
74514.5
75095.5
75147.7
75102
75118.1
75073.7
75076.2
75044.8
75039.3
75020.9
75011.1
74999.3
74989.4
74979.8
74970.6
74961.4
74952.1
74942.7
74933.2
74923.9
74914.8
74906.5
74899.1
74893
74888.8
74886.8
74887.4
74891.1
74898.2
74909.2
74924.3
74943.9
74968.3
74997.6
75032.4
75518.3
75575.1
75519.9
75523.4
75473.1
75470.3
75437
75429.9
75412
75403.4
75394.1
75387.2
75381
75375.7
75370.7
75366
75361.6
75357.3
75353.4
75350
75347.5
75346.2
75346.5
75348.9
75353.6
75361.2
75372.1
75386.6
75405.2
75428.1
75455.6
75488.1
75525.7
75569.1
75976.3
76022.3
75941.2
75936.1
75878.2
75869.2
75835.1
75826.3
75810.4
75803.4
75796.8
75793.2
75791
75790.1
75789.8
75790.2
75791.1
75792.5
75794.4
75797.1
75800.9
75806.1
75813.2
75822.6
75834.5
75849.6
75868
75890.3
75916.9
75947.9
75983.8
76024.7
76070.9
76123.1
76471.4
76473.5
76377.5
76354.2
76284.9
76274.6
76236.8
76228.6
76213.7
76208.8
76206
76206.3
76208.6
76212.5
76217.5
76223.4
76230.1
76237.6
76245.7
76254.9
76265.4
76277.6
76291.9
76308.7
76328.3
76351.1
76377.5
76408
76442.9
76482.4
76526.9
76576.6
76631.6
76692.5
86610.4
86615.8
86607.6
86584.9
86538.6
86449.9
86312.7
86121.8
85904.9
86598.8
86605
86598.1
86573.6
86529.4
86456
86376.3
86306.6
86225.1
86598.3
86605.2
86599.6
86580
86547.1
86496.1
86429.4
86352.8
86250.7
86597.1
86607.3