FoamFile{version     2.0;format      ascii;class       scalarAverageField; object      values;} 0.0
34944
(
69233.2
69251.8
69198.1
69140.6
69088
69034.6
68983.9
68935.7
68890.4
68849
68812.6
68780.6
68752.8
68729.3
68710.2
68694.7
68684.1
67620.4
67638.8
67585.1
67527.5
67474.9
67421.5
67370.7
67322.5
67277.3
67236
67199.5
67167.4
67139.6
67116.1
67097
67081.4
67070.8
66006.6
66024.5
65970.8
65913.1
65860.3
65806.9
65756
65707.8
65662.7
65621.5
65585
65552.8
65524.9
65501.3
65482.1
65466.5
65455.8
64391.6
64408.8
64355
64297.2
64244.3
64190.8
64139.8
64091.6
64046.6
64005.5
63968.9
63936.6
63908.6
63885
63865.7
63850
63839.2
62775.5
62791.8
62737.9
62679.9
62626.9
62573.3
62522.1
62473.9
62429.1
62388
62351.4
62318.9
62290.7
62267
62247.5
62231.8
62220.9
61158.3
61173.5
61119.4
61061.1
61008
60954.3
60902.9
60854.7
60809.9
60768.9
60732.3
60699.6
60671.2
60647.3
60627.7
60611.7
60600.7
59540.1
59553.8
59499.5
59440.9
59387.6
59333.7
59282.2
59234
59189.3
59148.2
59111.5
59078.6
59050.1
59025.9
59006.1
58989.9
58978.7
57920.7
57932.9
57878.1
57819.1
57765.5
57711.4
57659.9
57611.7
57566.9
57525.8
57488.9
57455.8
57427
57402.5
57382.5
57365.9
57354.4
56300.1
56310.6
56255.2
56195.8
56141.8
56087.5
56035.9
55987.8
55943
55901.7
55864.7
55831.3
55802.2
55777.4
55756.9
55739.8
55727.9
54678.1
54686.5
54630.3
54570.6
54516.2
54461.6
54410
54361.9
54316.9
54275.5
54238.1
54204.3
54174.8
54149.4
54128.5
54110.9
54098.5
53054.9
53060.5
53003.6
52943.4
52888.7
52833.9
52782.3
52734.3
52689.1
52647.3
52609.5
52575.2
52545.1
52519.3
52497.5
52478.8
52465.6
51430.1
51431.6
51373.7
51313.4
51258.5
51203.2
51151.6
51103.4
51057.8
51015.5
50977.2
50942.3
50911.5
50884.6
50862.4
50843.1
50829.1
49803.9
49800.2
49740.4
49679.9
49624.4
49569.3
49517.7
49469
49422.9
49380.1
49341
49305
49273.4
49245.6
49221.5
49200.2
49186.7
48173.6
48163.1
48101.9
48041.2
47984.8
47929.4
47877.7
47828.3
47781.5
47737.9
47697.6
47660.3
47627.2
47597.7
47572.1
47549.4
47532.3
46535.5
46516.4
46454.2
46392.3
46335.5
46279.7
46227.2
46176.8
46129
46084.3
46042.6
46004
45969.1
45938
45910.6
45886.6
45868.5
44885.4
44861.2
44798.3
44734.3
44676.4
44620
44566.7
44515.4
44466.9
44421.2
44378.3
44338.5
44302
44269
44240.5
44215.2
44194.6
43224.3
43198.3
43133.4
43066.5
43006.5
42949.1
42894.6
42842.6
42793.3
42746.6
42702.5
42661.4
42623.6
42588.8
42558.9
42531.9
42509.6
41549
41527.8
41460
41391
41328.9
41269.9
41214
41161.1
41111
41063.7
41019.2
40977.5
40939.1
40905
40873.8
40847.5
40822.6
39873.7
39851.3
39777.9
39709.4
39648.4
39589.9
39533.8
39481
39430.7
39383.2
39338.4
39296.3
39257.5
39223.5
39191.7
39163.5
39137.6
38187.9
38156.3
38079
38012.3
37953.9
37899.7
37847.5
37796.8
37747.4
37699.7
37654.3
37611.6
37571.6
37536.4
37503.3
37473
37445.9
36490
36430.8
36353.5
36293.3
36240.8
36192.9
36149.4
36104.8
36056.1
36006.8
35959.2
35915.9
35874.9
35838.2
35804.3
35772.6
35745.2
68970.9
68983.4
69007.1
69001.7
68972.7
68935
68893.3
68852.3
68815.5
68775.3
68746.1
68724.5
68703.3
68688.5
68680.3
68675.9
68677.5
67356.9
67369.4
67393.2
67387.9
67359
67321.3
67279.6
67238.7
67201.9
67161.7
67132.5
67111
67089.8
67075
67066.9
67062.6
67064.1
65740.5
65753
65777.1
65771.9
65743.1
65705.7
65664
65623.1
65586.3
65546.2
65517.1
65495.6
65474.4
65459.7
65451.6
65447.4
65449.1
64121.9
64134.4
64158.8
64153.7
64125.2
64088
64046.4
64005.5
63968.7
63928.7
63899.7
63878.3
63857.2
63842.6
63834.6
63830.5
63832.3
62501
62513.6
62538.3
62533.5
62505.3
62468.3
62426.8
62385.9
62349.1
62309.3
62280.4
62259
62238.1
62223.5
62215.6
62211.7
62213.8
60878.1
60890.7
60915.8
60911.3
60883.4
60846.7
60805.3
60764.3
60727.5
60687.8
60659
60637.7
60616.9
60602.4
60594.7
60591
60593.4
59253.3
59265.9
59291.4
59287.1
59259.5
59223.1
59181.8
59140.7
59103.7
59064.3
59035.6
59014.4
58993.8
58979.4
58971.8
58968.4
58971.1
57626.4
57639.1
57665
57661.1
57633.8
57597.6
57556.3
57515.2
57477.8
57438.5
57409.9
57388.8
57368.3
57353.9
57346.5
57343.4
57346.5
55998.8
56011.3
56037.4
56033.4
56006.2
55969.9
55928.4
55887
55849.3
55810.3
55782
55760.7
55740.3
55726.1
55718.9
55716.1
55719.6
54368.9
54381.4
54407.4
54403.5
54376.2
54340.1
54298.7
54256.8
54218.5
54179.6
54151.2
54129.8
54109.3
54095.3
54088.3
54085.7
54089.7
52738.8
52751.2
52777
52772.6
52745.3
52708.4
52665.6
52622.7
52583.6
52544.9
52516.8
52495.1
52474.7
52460.9
52454.2
52452.1
52456.4
51108.5
51119.8
51143.8
51137.9
51108.9
51070.9
51028.4
50985
50944.5
50906.4
50878.3
50856.2
50835.4
50821.7
50815.2
50813.1
50818.6
49473.6
49484.6
49507.5
49500.8
49470.5
49431.4
49388.1
49341.5
49299.7
49262.5
49233
49210.5
49190.2
49177.1
49170.6
49168.7
49175.2
47838.1
47846.7
47866.8
47856.5
47820.7
47778.4
47732.1
47683.2
47641.7
47605.5
47575.2
47551.5
47531.7
47520.1
47514.7
47513.3
47519.1
46193.8
46198
46213
46199.6
46160.2
46115.9
46068.4
46017.9
45974.2
45936.6
45905.4
45880.8
45861
45850.9
45845.8
45845.4
45853.9
44544.2
44543.4
44554.1
44534.5
44489.8
44441.4
44389.8
44337.2
44292.3
44252.9
44220.7
44196.5
44177.7
44167.9
44165.8
44168.7
44177.9
42904.7
42887
42888
42856
42803.4
42749.2
42693.4
42639.9
42594.4
42554.7
42522
42497.2
42480.5
42472.7
42470.9
42477.3
42491.2
41256.2
41216.5
41205.8
41162.9
41105.5
41045
40985.3
40932.4
40888.8
40851.6
40817.8
40793.9
40782.5
40775.2
40774.9
40782.9
40799.6
39600
39537.5
39514.7
39464
39402.9
39336.6
39275.9
39225.3
39183.9
39147
39120.1
39097.4
39085.6
39082.2
39084.3
39093.6
39111.9
37929.5
37850.2
37812.3
37750.3
37684.3
37616.1
37554.2
37502.2
37462.2
37427.4
37404.3
37388.1
37380.6
37380.1
37385.6
37397.8
37417.9
36223.9
36148.1
36091.7
36017.3
35944
35874
35817.6
35766.4
35723.2
35687.9
35667.5
35657.2
35656.2
35662.2
35673.8
35691.3
35714.7
70589.6
70491.1
70391.1
70281.5
70165.4
70038.6
69919.9
69771
69598.6
68976.1
68877.7
68777.7
68668.2
68552.2
68425.4
68306.9
68158
67985.6
67360.8
67262.4
67162.6
67053.2
66937.4
66810.8
66692.6
66543.6
66371.3
65743.6
65645.4
65545.7
65436.5
65321
65194.7
65076.9
64927.8
64755.8
64124.5
64026.4
63926.9
63818.1
63703
63577
63460
63310.7
63139
62503.5
62405.5
62306.3
62198
62083.4
61958
61841.8
61692.2
61521
60880.2
60782.5
60683.6
60576
60462
60337.2
60222.1
60072.2
59901.7
59254.9
59157.3
59058.9
58952.2
58839.2
58715.3
58601.3
58451.2
58281.3
57626.8
57529.6
57431.5
57325.9
57213.9
57090.9
56978.6
56828.4
56659.6
55995.1
55898.2
55801.2
55697.3
55586.7
55465.2
55354.4
55204.8
55037
54362.5
54265.4
54168
54065.5
53956.7
53836.9
53727.3
53578.9
53413.4
52719.8
52623.9
52528.7
52428.7
52322.5
52205.4
52097
51951
51787.8
51075.3
50980.3
50886.1
50787.5
50683
50569.1
50462.4
50318.9
50160.8
49416
49325.3
49232.2
49136.9
49035.7
48922.7
48821.5
48682.4
48528.4
47744.1
47655.7
47566.3
47475.5
47377.3
47271.2
47171.8
47034.4
46888.5
46065.8
45977.6
45891
45800.3
45702.4
45599.8
45503.6
45371.6
45233.5
44359.5
44275
44191.3
44103.2
44011.2
43915.5
43827.1
43699.3
43568.8
42631.6
42549.5
42469.1
42386.7
42297.5
42206.1
42121.8
41999
41884.4
40874
40791.4
40712.4
40634.3
40552.9
40465
40381.2
40277.4
40186.7
39078.1
38995.1
38915.3
38835.6
38760.6
38683.7
38615.3
38531.1
38461.2
37233.8
37151.6
37072.4
36993.4
36919.2
36850.7
36806.2
36735.1
36695.4
72013.7
71688.7
71363.9
71023.5
70649.7
70249.4
69939.6
69231.3
67911.5
70397.7
70072.8
69748.1
69407.8
69034.2
68634.1
68324.5
67616.6
66297.3
68777.3
68452.5
68128.1
67788.1
67414.8
67015.1
66706
65998.8
64680.5
67152.5
66827.8
66503.8
66164.2
65791.5
65392.5
65084
64378
63061.2
65523.2
65198.8
64875.2
64536.3
64164.3
63766.1
63458.6
62754.1
61439.6
63889.4
63565.3
63242.4
62904.1
62533.1
62136
61829.7
61127.2
59815.5
62251.1
61927.4
61605.1
61267.8
60897.9
60502.1
60197.3
59497.5
58189.3
60608.1
60284.9
59963.5
59627.1
59258.4
58864
58561.2
57864.7
56560.6
58960.4
58637.8
58317.3
57982.1
57614.9
57222
56921.5
56229.5
54930.7
57307.8
56985.9
56666.7
56332.7
55967.3
55575.5
55277.5
54591.4
53298.3
55650
55329.2
55011.2
54678.7
54315.4
53923.2
53627.7
52951.1
51665.4
53986.8
53667.3
53351.3
53021
52661.6
52275.2
51983.2
51312.3
50034.2
52317.4
51999.8
51686
51357.9
51003.1
50622.7
50334.6
49670.3
48401
50641.2
50326.2
50015.6
49690.5
49341.1
48967.8
48683.5
48031
46777.3
48962.4
48646.8
48340.4
48018.6
47673.7
47308.1
47028.5
46394
45161.3
47279.3
46961.4
46658.7
46341.5
46001.9
45644.1
45368.8
44754.2
43548.2
45592.1
45270.9
44969.3
44657.7
44325.3
43976.4
43706.6
43120.8
41959
43898.4
43577.2
43276
42972.2
42646.1
42309.2
42041.8
41492.7
40384
42194.6
41881.5
41582.4
41278.9
40961.2
40638.1
40371.7
39874.7
38836.1
40481
40175.8
39878.8
39578.3
39273.6
38966.9
38704.9
38275.8
37340.2
38746.9
38447.9
38156.7
37863.2
37568.9
37279.1
37019.6
36653.4
35903.8
-116.374
-116.192
-116.125
-116.089
-116.022
-115.85
-115.547
-115.188
-114.949
-115
-115.173
-115.344
-115.346
-114.983
-114.506
-114.312
-114.208
-114.15
-114.135
-114.145
-114.192
-114.28
-114.391
-114.436
-114.417
-114.32
-114.087
-113.817
-113.682
-113.637
-113.618
-113.624
-113.634
-113.642
-113.649
-113.655
-113.66
-113.665
-113.674
-113.695
-113.735
-113.815
-113.953
-114.15
-114.405
-114.579
-114.695
-114.751
-114.78
-114.816
-114.88
-115.021
-117.061
-117.006
-117
-117.094
-117.281
-117.463
-117.277
-116.834
-116.494
-116.446
-116.544
-116.712
-116.846
-116.69
-116.446
-116.309
-116.224
-116.157
-116.104
-116.052
-115.997
-115.945
-115.925
-115.916
-115.911
-115.903
-115.847
-115.715
-115.629
-115.568
-115.517
-115.477
-115.448
-115.426
-115.41
-115.399
-115.39
-115.382
-115.379
-115.379
-115.38
-115.384
-115.389
-115.39
-115.415
-115.434
-115.488
-115.519
-115.491
-115.488
-115.478
-115.51
-118.78
-118.743
-118.709
-118.804
-119.009
-119.218
-119.082
-118.766
-118.587
-118.546
-118.565
-118.608
-118.652
-118.568
-118.436
-118.342
-118.27
-118.211
-118.157
-118.109
-118.067
-118.026
-117.977
-117.935
-117.906
-117.886
-117.831
-117.747
-117.679
-117.621
-117.571
-117.533
-117.502
-117.478
-117.457
-117.44
-117.424
-117.41
-117.393
-117.378
-117.362
-117.343
-117.324
-117.3
-117.271
-117.249
-117.251
-117.229
-117.197
-117.163
-117.124
-117.098
-120.841
-120.765
-120.729
-120.766
-120.864
-120.939
-120.853
-120.697
-120.606
-120.565
-120.553
-120.557
-120.552
-120.502
-120.428
-120.365
-120.312
-120.262
-120.214
-120.169
-120.124
-120.08
-120.036
-119.992
-119.953
-119.916
-119.864
-119.801
-119.741
-119.688
-119.638
-119.598
-119.563
-119.535
-119.511
-119.491
-119.473
-119.457
-119.44
-119.424
-119.409
-119.392
-119.373
-119.354
-119.339
-119.332
-119.331
-119.314
-119.29
-119.27
-119.265
-119.284
-122.823
-122.767
-122.742
-122.753
-122.78
-122.795
-122.754
-122.676
-122.621
-122.586
-122.559
-122.541
-122.523
-122.49
-122.444
-122.398
-122.353
-122.31
-122.268
-122.224
-122.181
-122.138
-122.095
-122.051
-122.008
-121.964
-121.915
-121.859
-121.803
-121.749
-121.699
-121.654
-121.616
-121.583
-121.556
-121.533
-121.514
-121.498
-121.483
-121.47
-121.459
-121.446
-121.433
-121.419
-121.406
-121.396
-121.39
-121.379
-121.367
-121.356
-121.353
-121.363
-124.822
-124.783
-124.764
-124.759
-124.759
-124.75
-124.72
-124.673
-124.632
-124.602
-124.584
-124.566
-124.541
-124.51
-124.474
-124.436
-124.396
-124.357
-124.318
-124.278
-124.239
-124.199
-124.158
-124.115
-124.072
-124.027
-123.98
-123.929
-123.875
-123.822
-123.772
-123.726
-123.684
-123.649
-123.62
-123.594
-123.574
-123.557
-123.543
-123.53
-123.519
-123.509
-123.5
-123.494
-123.486
-123.477
-123.469
-123.462
-123.455
-123.453
-123.458
-123.467
-126.816
-126.792
-126.775
-126.765
-126.754
-126.736
-126.71
-126.677
-126.646
-126.619
-126.599
-126.58
-126.556
-126.529
-126.499
-126.468
-126.435
-126.401
-126.366
-126.329
-126.292
-126.254
-126.217
-126.18
-126.141
-126.098
-126.052
-126.003
-125.953
-125.902
-125.852
-125.805
-125.762
-125.726
-125.695
-125.67
-125.65
-125.632
-125.618
-125.607
-125.598
-125.59
-125.583
-125.58
-125.576
-125.574
-125.574
-125.573
-125.571
-125.573
-125.581
-125.597
-128.823
-128.81
-128.799
-128.788
-128.774
-128.754
-128.729
-128.699
-128.675
-128.653
-128.626
-128.597
-128.571
-128.545
-128.518
-128.49
-128.461
-128.432
-128.403
-128.375
-128.345
-128.313
-128.28
-128.245
-128.208
-128.168
-128.125
-128.079
-128.032
-127.983
-127.934
-127.886
-127.843
-127.804
-127.771
-127.743
-127.721
-127.706
-127.696
-127.689
-127.685
-127.682
-127.679
-127.678
-127.678
-127.681
-127.687
-127.692
-127.698
-127.707
-127.717
-127.731
-130.858
-130.854
-130.847
-130.837
-130.823
-130.804
-130.778
-130.749
-130.725
-130.703
-130.681
-130.652
-130.622
-130.594
-130.566
-130.534
-130.499
-130.463
-130.432
-130.407
-130.382
-130.356
-130.329
-130.3
-130.269
-130.234
-130.196
-130.157
-130.116
-130.073
-130.029
-129.986
-129.944
-129.905
-129.871
-129.841
-129.817
-129.801
-129.79
-129.784
-129.783
-129.785
-129.786
-129.79
-129.795
-129.8
-129.808
-129.818
-129.831
-129.846
-129.864
-129.883
-132.932
-132.932
-132.929
-132.921
-132.908
-132.889
-132.864
-132.834
-132.805
-132.779
-132.756
-132.733
-132.71
-132.685
-132.659
-132.628
-132.589
-132.546
-132.502
-132.459
-132.423
-132.394
-132.368
-132.345
-132.321
-132.295
-132.266
-132.237
-132.205
-132.172
-132.135
-132.096
-132.058
-132.023
-131.991
-131.965
-131.943
-131.925
-131.911
-131.902
-131.9
-131.9
-131.9
-131.906
-131.916
-131.925
-131.938
-131.953
-131.969
-131.986
-132.007
-132.035
-135.053
-135.054
-135.051
-135.045
-135.036
-135.023
-135.003
-134.975
-134.943
-134.908
-134.867
-134.833
-134.802
-134.779
-134.761
-134.744
-134.722
-134.693
-134.658
-134.613
-134.567
-134.525
-134.487
-134.453
-134.423
-134.394
-134.366
-134.339
-134.31
-134.281
-134.25
-134.22
-134.191
-134.165
-134.14
-134.119
-134.102
-134.088
-134.078
-134.071
-134.068
-134.069
-134.071
-134.077
-134.088
-134.102
-134.117
-134.134
-134.152
-134.173
-134.195
-134.227
-137.295
-137.301
-137.307
-137.313
-137.316
-137.311
-137.299
-137.28
-137.254
-137.22
-137.161
-137.082
-137.004
-136.943
-136.9
-136.869
-136.842
-136.816
-136.79
-136.765
-136.737
-136.705
-136.672
-136.639
-136.607
-136.577
-136.547
-136.515
-136.482
-136.449
-136.417
-136.386
-136.356
-136.328
-136.306
-136.289
-136.276
-136.268
-136.265
-136.266
-136.272
-136.284
-136.298
-136.309
-136.322
-136.338
-136.354
-136.371
-136.391
-136.411
-136.432
-136.462
-139.531
-139.541
-139.551
-139.561
-139.569
-139.57
-139.57
-139.564
-139.556
-139.552
-139.539
-139.522
-139.474
-139.405
-139.321
-139.239
-139.175
-139.122
-139.081
-139.047
-139.011
-138.974
-138.936
-138.901
-138.87
-138.843
-138.818
-138.791
-138.766
-138.743
-138.72
-138.697
-138.675
-138.653
-138.633
-138.615
-138.599
-138.587
-138.58
-138.579
-138.584
-138.598
-138.617
-138.631
-138.647
-138.661
-138.678
-138.695
-138.715
-138.735
-138.756
-138.784
36835.7
36779.8
36722.5
36663.6
36603.6
36542.5
36480.5
36417.4
36353.2
36288.1
36221.9
36153.3
36076.4
35972.5
35843.8
35700.7
35280.2
35389.7
33504.3
36755.4
36699.6
36642.4
36583.7
36523.9
36462.9
36401.2
36338.4
36274.5
36209.9
36144.2
36076.3
36000.5
35899.5
35771.4
35624.5
35212
35312.5
33444.2
36677
36621.2
36564.1
36505.5
36445.8
36385
36323.5
36261.1
36197.7
36133.6
36068.7
36001.8
35927.8
35830.6
35705.3
35559.1
35152.7
35246.2
33421
36600.5
36544.7
36487.6
36429
36369.5
36308.9
36247.6
36185.6
36122.8
36059.4
35995.5
35930
35858.4
35766.5
35646.1
35505.4
35101
35187
33431.1
36525.6
36469.8
36412.6
36354.1
36294.7
36234.2
36173.2
36111.5
36049.4
35987
35924.3
35860.6
35792.4
35707.5
35594
35460.8
35065.8
35129.5
33464.2
36452.6
36396.8
36339.5
36281
36221.7
36161.4
36100.6
36039.3
35977.9
35916.4
35855
35793.3
35729.1
35653.8
35549.7
35413.8
35050.5
35058.7
33481.8
36381.1
36325.1
36267.6
36209
36149.7
36089.5
36028.9
35967.9
35907
35846.3
35786
35725.8
35665.1
35598.6
35510.6
35371.1
35061.8
35017.5
33521.2
36311.1
36254.9
36197.3
36138.5
36079.2
36019
35958.4
35897.7
35837.2
35777.1
35717.7
35658.8
35600.1
35538.4
35461.5
35331.2
35085.8
34981.5
33639.1
36243.1
36186.6
36128.8
36069.7
36010.3
35950.2
35889.7
35829.1
35769
35709.5
35650.9
35593
35535.7
35476.3
35403.1
35281.3
35092.2
34959.9
33848.4
36177.6
36122.1
36065.3
36007.2
35948.6
35889.3
35829.7
35770.2
35711.4
35653.3
35595.9
35539.6
35484.1
35427.6
35360.8
35259.2
35110.3
35001.9
34047.1
36114.1
36060.8
36006.2
35950.3
35893.7
35836.3
35778.4
35720.6
35663.5
35607.1
35551.3
35496.8
35443.1
35389.7
35329.3
35236.5
35097.4
35024.3
34071.7
36051.5
36000.3
35947.7
35894
35839.5
35784
35728.2
35672.3
35616.7
35561.6
35507.2
35453.4
35400.6
35347.9
35289.6
35199.7
35053.9
35006.7
34072.9
35991
35941.4
35890.5
35838.4
35785.5
35731.9
35677.9
35623.3
35568.7
35514.3
35460.4
35407.4
35355.2
35302.5
35244
35153.2
34997.4
34966.4
34060.1
35932.8
35884.8
35835.3
35784.5
35732.9
35680.2
35626.9
35573.4
35520.1
35466.8
35414
35361.8
35309.9
35256.6
35195.6
35102.8
34933
34925.5
34021.8
35876.8
35830.2
35781.9
35732.4
35682
35630.4
35578.1
35525.2
35472.8
35420.2
35367.8
35315.9
35263.8
35209.5
35145.2
35052.9
34867.1
34881.7
33977.3
35823.5
35777.9
35730.7
35682.1
35632.5
35581.9
35530.4
35478.2
35426.2
35374
35321.7
35269.6
35217.1
35160.9
35093
35001.8
34803.4
34833.2
33930.2
35772.7
35728
35681.5
35633.7
35584.7
35534.6
35483.5
35431.7
35380
35328
35275.7
35223.2
35169.8
35111.3
35040
34949.3
34742.1
34781
33879.5
35724.6
35680.4
35634.5
35587.1
35538.5
35488.7
35437.8
35386
35334.4
35282.2
35229.6
35176.7
35122.2
35060.9
34986.1
34895
34682.3
34726.8
33826.4
35679.7
35635.9
35590.3
35543.1
35494.6
35444.9
35394
35342.1
35290.2
35237.6
35184.4
35130.9
35075.3
35010.4
34931
34838.6
34623.9
34670.3
33772.3
35638.1
35594.5
35548.9
35501.9
35453.4
35403.5
35352.3
35300.1
35247.8
35194.5
35140.5
35086
35029
34960.3
34878.8
34784.9
34567
34612.8
33717
35599.7
35556.2
35510.7
35463.5
35414.8
35364.6
35313.1
35260.4
35207.3
35153.3
35098.3
35042.5
34983.8
34911.1
34827.2
34731.2
34511.7
34555.9
33660.6
35565.5
35521.8
35476.1
35428.6
35379.5
35328.9
35276.7
35223.3
35169.4
35114.3
35058.3
35001.1
34940.5
34864.2
34777.6
34679
34457.9
34499.8
33604.4
35535.2
35491.3
35445.2
35397.3
35347.8
35296.5
35243.6
35189.4
35134.4
35078.2
35020.8
34962
34898.9
34818.5
34728.6
34627.4
34406
34445.6
33547.1
35509.7
35465.4
35418.9
35370.5
35320.3
35268.2
35214.4
35159.2
35103
35045.4
34986.6
34926.2
34860.8
34776.9
34683.8
34579.5
34356.6
34394.1
33490.9
35488.8
35444
35396.9
35347.7
35296.8
35243.9
35189.2
35133
35075.5
35016.4
34956.2
34893.9
34826.1
34738.4
34641.5
34534.4
34310.8
34345.7
33435.1
35473.4
35428
35380.2
35330.4
35278.7
35224.8
35169.1
35111.6
35052.7
34992.2
34930.3
34866.1
34795.6
34703.9
34603
34493.1
34270.5
34301
33380.1
35464.6
35418.3
35369.6
35318.6
35265.7
35210.7
35153.7
35095
35034.7
34972.8
34909.2
34843
34769.7
34674.1
34569.2
34457.4
34233.6
34258.7
33319.3
35460.5
35413.8
35364.5
35312.7
35258.7
35202.5
35144.5
35084.6
35022.8
34959.4
34894.1
34825.8
34749.7
34649.7
34539.8
34427.1
34201.5
34227.8
33259.7
35462.6
35415.2
35365.3
35313.1
35258.6
35201.4
35142
35080.4
35016.9
34951.7
34884.6
34814.2
34735.6
34632.8
34518.2
34403.8
34174.6
34204.4
33204
35471.6
35423.5
35372.8
35319.5
35263.8
35205.6
35145
35082.3
35017.4
34950.6
34882.1
34810.1
34729.2
34624.5
34505.8
34388.2
34156.7
34187.6
33156.3
35488.2
35439.2
35387.4
35333
35276
35216.6
35155
35091.3
35025.3
34957.2
34887.2
34813.5
34730.6
34623.4
34499.4
34380.6
34148.5
34178.8
33116.5
35512.1
35462.2
35409.5
35354.1
35296.1
35235.4
35172.5
35107.4
35040
34970.8
34899.8
34824.4
34739.4
34628.9
34499.9
34381
34151
34181.9
33085.7
35543.9
35493.3
35439.7
35383.4
35324.2
35262.5
35198.4
35132.1
35063.4
34992.8
34921.5
34843.9
34756.7
34643.3
34509.9
34391.2
34161.8
34199.3
33071.2
35584.4
35532.6
35478
35420.4
35360
35296.8
35231.2
35163.4
35093.5
35022.5
34950
34872.9
34781.8
34666.3
34529
34412.3
34185.2
34226.6
33072.7
35632.5
35579.9
35524.4
35465.9
35404.4
35339.9
35272.9
35203.8
35132.1
35058.7
34985.4
34906.9
34813.1
34698.1
34558
34445.2
34221.3
34263.6
33090.6
35690.7
35637
35580.2
35520.3
35457.3
35391.4
35323
35252.6
35179.8
35104.6
35030.2
34947.9
34855.4
34740
34598.5
34490.6
34269.1
34313.3
33135.2
35757.2
35702.3
35644.1
35583
35519.2
35452.4
35382.8
35311.2
35237.6
35161.6
35084.3
35001.2
34909.6
34793.3
34651.7
34545.8
34329.2
34375.1
33207.2
35833.3
35777.4
35718.1
35655.9
35590.7
35522.4
35451.4
35378.2
35303.5
35226.6
35148
35064.5
34972
34857.5
34717.5
34613.7
34403.9
34450.5
33306.9
35919.7
35862.4
35801.7
35737.6
35670.5
35600.7
35528.4
35454
35378.2
35300.8
35221.7
35137.8
35045.4
34934.1
34796.4
34694.8
34497.3
34534.9
33442
36015.4
35956.6
35894.4
35828.7
35760.2
35689.1
35615.4
35539.7
35462.5
35384.5
35305
35221.4
35130.2
35021.8
34889.2
34788.7
34609.4
34633.9
33634.8
36121.1
36060.9
35997.1
35929.9
35859.6
35786.8
35711.6
35634.5
35556
35476.7
35396.5
35314.5
35226
35121.2
34995.8
34896.1
34740
34748.9
33875.4
36237.5
36175.5
36109.8
36040.6
35968.3
35893.6
35816.9
35738.4
35658.3
35577.7
35496.4
35414.6
35329.5
35229.5
35113.8
35015.7
34887.9
34884.4
34184.8
36363.8
36299.5
36231.6
36160.5
36086.3
36009.6
35931.3
35851.7
35770.9
35690.1
35609.4
35528.8
35445.2
35349.2
35240.8
35150.4
35062.2
35061
34651.7
36500.7
36436
36368
36296.9
36223
36146.6
36068.5
35989.7
35910.4
35831
35752.9
35677
35600.3
35517.9
35424.9
35345.2
35281.5
35328
35230.2
36649.7
36586.9
36520.8
36451.6
36379.7
36305.5
36229.7
36153.2
36076.7
36001
35927.2
35856.5
35787.4
35718.4
35643.5
35573.9
35508.7
35546.4
35531.7
36808.7
36747.9
36683.8
36616.8
36547.3
36475.9
36402.9
36329.2
36255.8
36183.7
36113.8
36047
35984
35924.8
35863.1
35809.3
35749.6
35770.2
35783.1
36978.4
36919.8
36858.1
36793.8
36727.1
36658.5
36588.4
36517.6
36447.1
36377.5
36310.5
36247.7
36190
36138.7
36087.6
36050.2
36005.5
36011.9
36030.8
37158.4
37102.2
37043.2
36981.7
36917.8
36852
36784.9
36717.4
36650.1
36583.9
36520.7
36461.9
36408.4
36363.5
36322
36296.2
36272
36278.8
36283.7
37348.8
37295.2
37238.9
37180.1
37119.2
37056.7
36993.2
36929.3
36865.9
36804
36744.7
36689.7
36640.2
36600.1
36566.2
36548.5
36539.9
36563.4
36549.8
37548.6
37497.6
37444.2
37388.6
37331.2
37272.5
37212.9
37153
37093.9
37036.2
36981.2
36930.4
36884.8
36848.8
36821.3
36810.4
36810.5
36858.6
36831.3
37757.8
37710
37660
37608
37554.3
37499.4
37443.8
37388
37333.1
37279.8
37229.3
37183.3
37142.8
37112.4
37091.2
37086.8
37089.3
37159.5
37124.3
37976.4
37931.9
37885.2
37836.8
37786.9
37736
37684.6
37633.4
37583.2
37534.9
37489.8
37449.5
37415
37390.2
37375.3
37375.8
37379.7
37466.8
37425.6
11006.9
10903.7
10798.5
10691.1
10581.9
10469.8
10355.3
10238.5
10119.6
9998.94
9876.53
9752.92
9627.46
9501.37
9374.58
9246.68
9118.88
8991.84
8865.36
8740.15
8617.7
8497.21
8379.87
8265.92
8156.41
8052.53
7953.43
7861.41
7776.44
7699.03
7630.69
7572.31
7524.56
7488.19
7463.71
7451.97
7454.26
7472.35
7508.22
7562.14
7635.01
7728.11
7841.62
7976.34
8132.9
8311.21
8511.6
8734.52
8978.98
9244.93
9531.7
9837.77
10196.6
10093.3
9988.11
9880.75
9771.53
9659.47
9544.97
9428.15
9309.23
9188.59
9066.17
8942.58
8817.14
8691.05
8564.25
8436.36
8308.56
8181.52
8055.05
7929.82
7807.35
7686.86
7569.51
7455.56
7346.06
7242.25
7143.2
7051.15
6966.11
6888.68
6820.34
6761.96
6714.2
6677.84
6653.36
6641.62
6643.9
6662
6697.87
6751.78
6824.65
6917.76
7031.27
7165.98
7322.55
7500.86
7701.25
7924.18
8168.73
8434.72
8721.48
9027.55
9326.11
9225.99
9124.08
9020.15
8914.33
8806.49
8697.24
8585.84
8472.93
8358.18
8241.95
8124.58
8005.07
7885.97
7765.02
7643.54
7522.24
7400.46
7278.83
7158.41
7038.69
6921.44
6807.27
6696.16
6589.73
6487.67
6389.34
6297.46
6210.97
6130.37
6059.53
5995.56
5941.8
5898.88
5864.34
5842.44
5832.48
5835.33
5855.69
5891.83
5944.31
6016.77
6109.27
6222.03
6355.2
6510.31
6686.56
6884.99
7108.32
7354.31
7622.6
7914.09
8515.76
8415.64
8313.73
8209.8
8103.98
7996.13
7886.89
7775.5
7662.59
7547.83
7431.59
7314.23
7194.71
7075.61
6954.67
6833.19
6711.97
6590.25
6468.62
6348.15
6228.36
6111.08
5996.92
5885.81
5779.38
5677.33
5579.11
5487.24
5400.73
5320.05
5249.17
5185.2
5131.44
5088.52
5053.98
5032.08
5022.12
5024.97
5045.34
5081.48
5133.97
5206.42
5298.91
5411.67
5544.84
5699.96
5876.25
6074.77
6298.11
6544.09
6812.32
7103.75
7651.61
7554.09
7454.87
7353.8
7251.22
7146.61
7040.05
6931.75
6821.63
6709.65
6596.4
6481.1
6363.84
6246.07
6126.56
6006.33
5885.32
5764.88
5647.54
5526.68
5404.85
5285.06
5167.51
5054.55
4943.55
4837.92
4734.72
4632.86
4533.81
4439.08
4351.26
4271.25
4201.16
4141.52
4091.7
4047.83
4013.23
3988.38
3974.26
3975.85
3996.77
4038.09
4099.21
4183.56
4288.4
4412.05
4563.3
4742.62
4948.96
5185.67
5453.19
5752.65
6841.7
6744.18
6644.95
6543.85
6441.24
6336.62
6230.07
6121.79
6011.71
5899.79
5786.52
5671.12
5553.84
5436.09
5316.62
5196.38
5075.17
4954.76
4837.65
4716.77
4594.85
4474.98
4357.44
4244.51
4133.45
4027.65
3924.42
3822.69
3723.93
3629.1
3541.04
3460.97
3390.91
3331.25
3281.38
3237.49
3202.89
3178.04
3163.92
3165.52
3186.47
3227.76
3288.85
3373.2
3478.04
3601.69
3752.94
3932.25
4138.62
4375.34
4642.85
4942.29
5979.29
5883.92
5786.76
5688.17
5588.47
5487.19
5384.09
5280.55
5173.66
5062.82
4948.69
4833.5
4720.32
4606.22
4492.24
4375.2
4254.06
4130.99
4007.79
3884.8
3760.15
3632.45
3519.82
3402.17
3279.28
3157.48
3052.41
2953.84
2858.35
2768.8
2673.71
2585.89
2495.11
2401.32
2340.49
2286.75
2223.5
2158.69
2106.08
2068.99
2010.05
1996.86
2077.57
2150.96
2190.3
2257.79
2362.67
2522.85
2704.73
2903.76
3160.42
3471.06
5177.56
5083.78
4988.56
4889.96
4790.27
4688.98
4585.61
4476.25
4366.1
4256.31
4152.29
4048.33
3935.14
3821.04
3694.83
3567.59
3444.36
3321.28
3198.41
3076.38
2963.04
2871.63
2759.75
2615.67
2472.94
2347.44
2242.11
2143.54
2048.29
1962.85
1909.76
1819.37
1699.95
1592.43
1531.94
1495.55
1471.35
1404.39
1324.86
1264.1
1199.72
1186.54
1267.34
1343.06
1393.96
1473.59
1578.91
1728.56
1894.86
2093.48
2350.14
2662.49
4308.36
4216.02
4122.02
4027.03
3932.9
3835.81
3733.14
3630.58
3527.04
3416.83
3310.26
3205.05
3098.96
2984.92
2871
2746.14
2631.91
2517.94
2403.09
2277.92
2152.39
2041.02
1925.33
1796.8
1666.34
1545.79
1423.64
1309.06
1221.81
1125.59
1038.39
950.777
878.471
790.523
720.037
671.219
613.079
581.593
560.648
477.937
439.665
388.434
395.29
379.663
392.136
475.736
559.742
674.409
819.955
959.813
1062.27
1236.6
3542.59
3451.02
3362.58
3267.77
3163.7
3058.93
2969.34
2879.89
2776.35
2663.42
2550.45
2445.95
2347.85
2241.44
2127.52
1997.85
1844.76
1711.45
1597.37
1487.53
1451.51
1384.33
1268.83
1142.25
1011.8
826.775
646.449
510.262
416.911
321.681
283.398
464.294
432.545
202.222
-18.3696
-51.8966
-98.6533
-158.523
-127.044
198.909
231.458
171.808
-119.018
-274.88
-119.055
289.768
395.849
451.864
616.718
813.764
910.175
939.53
2635.2
2546.36
2456.8
2367.07
2277.53
2184.59
2088.84
1993.59
1900.42
1811.19
1712.13
1604.92
1503.27
1415.66
1334.84
1248.51
1148.55
1037.24
893.366
809.418
725.55
648.532
554.915
448.971
393.823
345.182
253.92
184.812
157.036
91.402
11.4022
-0.801826
7.45531
-28.8817
-79.1215
-89.1343
-84.1508
-88.3496
-94.8029
-95.3912
-76.5729
-45.3027
-46.5465
-51.5553
-52.0824
-49.5021
-46.4859
-31.1484
15.9225
67.0063
102.51
148.677
1934.41
1850.54
1766.72
1676.81
1584.76
1497.23
1423.42
1346.6
1243.6
1109.44
1013.54
966.544
904.45
816.845
736.02
546.337
380.89
290.72
346.258
320.524
224.676
-15.871
-120.568
-43.7463
117.123
85.2857
-4.87062
-154.989
-248.407
-226.742
-138.542
-129.055
-133.907
-155.013
-147.745
-107.717
-92.9909
-95.466
-101.79
-114.442
-109.966
-66.4986
-54.6387
-57.097
-57.9883
-57.6598
-64.4766
-66.9632
-20.5824
39.7051
71.5905
85.3123
1061.24
994.935
929.423
863.227
796.88
731.029
667.574
603.976
536.547
469.703
412.326
359.469
301.476
236.603
178.74
143.576
126.868
99.1169
49.7698
7.74055
-24.7559
-51.4775
-77.7893
-93.0159
-98.6874
-96.1339
-58.7042
-27.4284
-42.2541
-72.8854
-83.4844
-82.9264
-82.3626
-81.1138
-78.1258
-76.7911
-77.0263
-76.9258
-75.5759
-75.3234
-76.1607
-76.3885
-75.607
-74.5902
-73.7017
-73.0222
-72.9894
-72.4095
-70.5749
-67.6509
-64.7549
-62.5488
507.006
440.069
376.792
320.906
271.489
219.26
163.871
114.939
81.9552
59.605
20.8529
-25.5545
-58.3795
-64.2454
-67.6159
-99.1942
-143.803
-191.192
-206.382
-189.896
-169.554
-137.933
-109.623
-107.022
-112.693
-121.127
-150.091
-138.283
-125.637
-99.634
-87.3702
-84.7243
-84.2938
-84.413
-83.6643
-83.2681
-81.8114
-78.2875
-76.5484
-76.2959
-77.1332
-77.361
-76.5795
-75.5627
-74.6743
-73.9947
-73.9619
-73.382
-71.5474
-68.6234
-65.7274
-63.5217
80.6554
57.8315
37.0835
18.1261
0.739599
-14.7612
-28.0528
-39.8542
-49.4882
-57.6097
-65.1741
-72.2039
-78.2709
-83.4156
-87.1644
-88.5771
-88.0044
-86.4141
-84.8183
-84.086
-83.4297
-82.6961
-81.7082
-81.0812
-81.3463
-81.0043
-79.6907
-78.3539
-77.8135
-77.9451
-78.5104
-79.0622
-79.6901
-79.8939
-79.4525
-78.9978
-78.6397
-78.3423
-78.0322
-77.7092
-77.4922
-77.4667
-77.4046
-77.316
-77.2269
-77.0588
-76.9131
-76.5376
-75.7059
-74.7186
-73.8116
-72.6304
-77.8365
-85.0283
-91.0311
-96.5673
-101.277
-104.871
-106.691
-107.596
-107.924
-108.396
-108.847
-108.299
-106.234
-102.428
-96.9097
-93.0814
-92.0901
-90.4834
-88.1467
-85.4238
-84.6833
-83.7044
-82.6845
-82.0574
-82.3224
-81.9804
-80.6667
-79.3299
-78.7894
-78.921
-79.4862
-80.038
-80.6658
-80.8687
-80.425
-79.9702
-79.6122
-79.3148
-79.0046
-78.6816
-78.4646
-78.4392
-78.3771
-78.2884
-78.1993
-78.0312
-77.8856
-77.5101
-76.6784
-75.6911
-74.784
-73.6028
-89.4165
-89.1104
-88.5793
-87.9844
-87.428
-86.9538
-86.4761
-85.9276
-85.3686
-84.8498
-84.388
-83.9823
-83.6296
-83.3152
-83.0416
-82.7948
-82.6067
-82.4404
-82.2811
-82.1276
-81.9798
-81.72
-81.4977
-81.4826
-81.7065
-81.8337
-81.6746
-81.4398
-81.2523
-81.1832
-81.2225
-81.3484
-81.5273
-81.655
-81.6086
-81.3884
-81.1076
-80.6191
-80.1646
-79.9167
-80.0588
-80.2356
-80.3277
-80.425
-80.4294
-80.4018
-80.4247
-80.2779
-79.8306
-79.1715
-78.5924
-77.7625
-92.7315
-91.4889
-90.3065
-89.2917
-88.5035
-87.9322
-87.4485
-86.9001
-86.3411
-85.8223
-85.3605
-84.9547
-84.602
-84.2877
-84.0141
-83.7673
-83.5791
-83.4128
-83.2536
-83.1001
-82.9522
-82.6924
-82.4701
-82.4551
-82.6789
-82.8075
-82.6874
-82.4794
-82.2487
-82.1578
-82.195
-82.3209
-82.4997
-82.6275
-82.5811
-82.3608
-82.0801
-81.5916
-81.1371
-80.8902
-81.0312
-81.208
-81.3001