/*--------------------------------*- C++ -*----------------------------------*\
| =========                 |                                                 |
| \\      /  F ield         | foam-extend: Open Source CFD                    |
|  \\    /   O peration     | Version:     3.0                                |
|   \\  /    A nd           | Web:         http://www.extend-project.de       |
|    \\/     M anipulation  |                                                 |
\*---------------------------------------------------------------------------*/
FoamFile
{
    version     2.0;
    format      ascii;
    class       dictionary;
    object      mechanicalProperties;
}
// * * * * * * * * * * * * * * * * * * * * * * * * * * * * * * * * * * * * * //

planeStress     no;

mechanical
(
    plastic
    {
        type            viscousHookeanElastic;
        rho             rho [1 -3 0 0 0 0 0] 7854;
        EInfinity       E [1 -1 -2 0 0 0 0] 200e+9;
        E               ( 100e+09 50e+09 10e+09 );
        relaxationTimes ( 1 0.1 0.01 );
        nu              nu [0 0 0 0 0 0 0] 0.3;
    }
);

// ************************************************************************* //
