/*--------------------------------*- C++ -*----------------------------------*\
| =========                 |                                                 |
| \\      /  F ield         | foam-extend: Open Source CFD                    |
|  \\    /   O peration     | Version:     3.2                                |
|   \\  /    A nd           | Web:         http://www.foam-extend.org         |
|    \\/     M anipulation  |                                                 |
\*---------------------------------------------------------------------------*/
FoamFile
{
    version     2.0;
    format      ascii;
    class       dictionary;
    object      blockMeshDict;
}
// * * * * * * * * * * * * * * * * * * * * * * * * * * * * * * * * * * * * * //

convertToMeters 1;

vertices
(
    (0 0 0)
    (1 0 0)
    (1.1 0.5 0)
    (1.2 1 0)
    (0.2 1 0)
    (0.1 0.5 0)

    (0 0 0.1)
    (1 0 0.1)
    (1.1 0.5 0.1)
    (1.2 1 0.1)
    (0.2 1 0.1)
    (0.1 0.5 0.1)
);

blocks
(
    hex (0 1 2 5 6 7 8 11) steel (50 25 1) simpleGrading (1 1 1)
    hex (5 2 3 4 11 8 9 10) epoxy (50 25 1) simpleGrading (1 1 1)
);

edges
(
);

boundary
(
    left
    {
        type patch;
        faces
        (
            (0 6 11 5)
            (5 11 10 4)
        );
    }

    bottom
    {
        type patch;
        faces
        (
            (0 1 7 6)
        );
    }

    right
    {
        type patch;
        faces
        (
            (1 2 8 7)
            (2 3 9 8)
        );
    }

    top
    {
        type patch;
        faces
        (
            (3 4 10 9)
        );
    }

    back
    {
        type empty;
        faces
        (
            (5 2 1 0)
            (4 3 2 5)
        );
    }

    front
    {
        type empty;
        faces
        (
            (6 7 8 11)
            (11 8 9 10)
        );
    }
);

mergePatchPairs
(
);

// ************************************************************************* //
