/*--------------------------------*- C++ -*----------------------------------*\
| =========                 |                                                 |
| \\      /  F ield         | foam-extend: Open Source CFD                    |
|  \\    /   O peration     | Version:     3.2                                |
|   \\  /    A nd           | Web:         http://www.foam-extend.org         |
|    \\/     M anipulation  | For copyright notice see file Copyright         |
\*---------------------------------------------------------------------------*/
FoamFile
{
    version     2.0;
    format      ascii;
    class       dictionary;
    location    "constant";
    object      solidProperties;
}
// * * * * * * * * * * * * * * * * * * * * * * * * * * * * * * * * * * * * * //

solidModel     kirchhoffPlate;

kirchhoffPlateCoeffs
{
    // Plate thickness
    plateThickness    plateThickness [ 0 1 0 0 0 0 0 ] 0.1;

    // Maximum number of momentum correctors
    nCorrectors       5000;

    // Solution tolerance for displacement
    solutionTolerance 1e-10;

    // Alternative solution tolerance for displacement
    alternativeTolerance 1e-10;

    // Material law solution tolerance
    //materialTolerance 1e-05;

    // Write frequency for the residuals
    //infoFrequency   100;
}


// ************************************************************************* //
