/*--------------------------------*- C++ -*----------------------------------*\
| solids4foam: solid mechanics and fluid-solid interaction simulations        |
| Version:     v2.0                                                           |
| Web:         https://solids4foam.github.io                                  |
| Disclaimer:  This offering is not approved or endorsed by OpenCFD Limited,  |
|              producer and distributor of the OpenFOAM software via          |
|              www.openfoam.com, and owner of the OPENFOAM® and OpenCFD®      |
|              trade marks.                                                   |
\*---------------------------------------------------------------------------*/
FoamFile
{
    version     2.0;
    format      ascii;
    class       dictionary;
    location    "constant";
    object      solidProperties;
}
// * * * * * * * * * * * * * * * * * * * * * * * * * * * * * * * * * * * * * //

solidModel     kirchhoffPlate;

kirchhoffPlateCoeffs
{
    // Plate thickness
    plateThickness    plateThickness [ 0 1 0 0 0 0 0 ] 0.1;

    // Maximum number of momentum correctors
    nCorrectors       5000;

    // Solution tolerance for displacement
    solutionTolerance 1e-10;

    // Alternative solution tolerance for displacement
    alternativeTolerance 1e-10;

    // Material law solution tolerance
    //materialTolerance 1e-05;

    // Write frequency for the residuals
    //infoFrequency   100;
}

// ************************************************************************* //
