/*--------------------------------*- C++ -*----------------------------------*\
| solids4foam: solid mechanics and fluid-solid interaction simulations        |
| Version:     v2.0                                                           |
| Web:         https://solids4foam.github.io                                  |
| Disclaimer:  This offering is not approved or endorsed by OpenCFD Limited,  |
|              producer and distributor of the OpenFOAM software via          |
|              www.openfoam.com, and owner of the OPENFOAM® and OpenCFD®      |
|              trade marks.                                                   |
\*---------------------------------------------------------------------------*/
FoamFile
{
    version     2.0;
    format      ascii;
    class       dictionary;
    location    "constant";
    object      dynamicMeshDict;
}
// * * * * * * * * * * * * * * * * * * * * * * * * * * * * * * * * * * * * * //

dynamicFvMesh   crackerFvMesh;

crackerFvMeshCoeffs
{
    crackPatch    crack;
    law
    {
        type      cohesiveZoneInitiation;

        crackPathLimiter
        {
            type        boundingBoxes;
            boundingBoxes
            (
                (0 -0.0001 0) (0.06 0.0001 0.001)
            );
        }
    }
}

// ************************************************************************* //
