/*--------------------------------*- C++ -*----------------------------------*\
| =========                 |                                                 |
| \\      /  F ield         | foam-extend: Open Source CFD                    |
|  \\    /   O peration     | Version:     3.0                                |
|   \\  /    A nd           | Web:         http://www.extend-project.de       |
|    \\/     M anipulation  |                                                 |
\*---------------------------------------------------------------------------*/
FoamFile
{
    version     2.0;
    format      ascii;
    class       volScalarField;
    object      p;
}
// * * * * * * * * * * * * * * * * * * * * * * * * * * * * * * * * * * * * * //

dimensions      [0 2 -2 0 0 0 0];

internalField   uniform 0;

boundaryField
{
    symmetry-x
    {
        type        symmetry;
    }
    symmetry-y
    {
        type        symmetry;
    }
    outlet
    {
        type        fixedValue;
        value       uniform 0;
    }
    inlet
    {
        //type        timeVaryingUniformFixedValue;
        "fileName|file" "$FOAM_CASE/constant/fluid/time-series";
        //outOfBounds clamp;
        type          uniformFixedValue;
        uniformValue  tableFile;
    }
    wall
    {
        // Default Dirichlet-Neumann approach
        // type       zeroGradient;

        // Robin condition approach
        type        elasticWallPressure;
        value       uniform 0;
    }
}

// ************************************************************************* //
