/*--------------------------------*- C++ -*----------------------------------*\
| =========                 |                                                 |
| \\      /  F ield         | foam-extend: Open Source CFD                    |
|  \\    /   O peration     | Version:     4.0                                |
|   \\  /    A nd           | Web:         http://www.foam-extend.org         |
|    \\/     M anipulation  |                                                 |
\*---------------------------------------------------------------------------*/
FoamFile
{
    version     2.0;
    format      ascii;
    class       dictionary;
    location    "constant/polyMesh";
    object      blockMeshDict;
}
// * * * * * * * * * * * * * * * * * * * * * * * * * * * * * * * * * * * * * //

convertToMeters 1;

vertices
(
    (0 0 0)
    (6 0 0)
    (6 2 0)
    (0 2 0)
    (0 0 1)
    (6 0 1)
    (6 2 1)
    (0 2 1)
);

blocks
(
    hex (0 1 2 3 4 5 6 7) (30 10 5) simpleGrading (1 1 1)
    //hex (0 1 2 3 4 5 6 7) (120 40 20) simpleGrading (1 1 1)
);
/*
edges
(
    arc 0 1 (0.353553 0.353553 0)
    arc 4 5 (0.353553 0.353553 0.1)
    arc 3 2 (0.4949 0.4949 0)
    arc 7 6 (0.4949 0.4949 0.1)
);
*/
patches
(
    patch left
	(
          (0 3 7 4)
        )
    pacth right
        (
          (1 2 6 5)
        )   
    patch down
    (
        (0 1 5 4)
    )

    patch up
    (
        (2 3 7 6)
    )
    patch front
    (
        (0 1 2 3)
    )

    patch back
    (
        (4 5 6 7)
    )

);

mergePatchPairs
(
);


// ************************************************************************* //
