/*--------------------------------*- C++ -*----------------------------------*\
| =========                 |                                                 |
| \\      /  F ield         | OpenFOAM Extend Project: Open Source CFD        |
|  \\    /   O peration     | Version:  1.6-ext                               |
|   \\  /    A nd           | Web:      www.extend-project.de                 |
|    \\/     M anipulation  |                                                 |
\*---------------------------------------------------------------------------*/
FoamFile
{
    version     2.;
    format      ascii;
    class       dictionary;
    location    "constant/polyMesh";
    object      blockMeshDict;
}
// * * * * * * * * * * * * * * * * * * * * * * * * * * * * * * * * * * * * * //

// start of blockMeshDict

convertToMeters 0.001;

vertices
(
    // Foundation - coarse zone
    (12 0 0) //0
    (200 0 0) //1
    (200 200 0) //2
    (12 200 0) //3
    (12 0 1) //4
    (200 0 1) //5
    (200 200 1) //6
    (12 200 1) //7

    // Indenter
    (0 200 0) //8
    (10 200 0) //9
    (10 250 0) //10
    (0 250 0) //11
    (0 200 1) //12
    (10 200 1) //13
    (10 250 1) //14
    (0 250 1) //15

    // Foundation - fine contact zone
    (0 0 0) //16
    (0 200 0) //17
    (0 0 1) //18
    (0 200 1) //19
);

blocks
(
    // Foundation coarse zone
    hex (0 1 2 3 4 5 6 7) (70 40 1) simpleGrading (25 0.02 1)
    // Indenter
    hex (8 9 10 11 12 13 14 15) (5 5 1) simpleGrading (1 1 1) 
    // Founcation fine contact zone
    hex (16 0 3 17 18 4 7 19) (38 40 1) simpleGrading (1 0.02 1) 
);

edges
(
);

patches
(
    patch sides
    (
        (1 5 6 2)
        (13 14 10 9)
        (12 8 11 15)
        (7 3 2 6)
    )

    empty frontAndBack
    (
        (0 1 2 3)
        (18 4 7 19)
        (7 6 5 4)
        (8 9 10 11)
        (15 14 13 12)
        (16 17 3 0)
    )

    patch bottom
    (
        (0 4 5 1)
        (16 0 4 18)
    )

    patch top
    (
        (11 10 14 15)
    )

    patch indenter
    (
        (8 12 13 9)
    )

    patch foundation
    (
        (19 7 3 17)
    )

);

mergePatchPairs
(
);

// ************************************************************************* //
