/*--------------------------------*- C++ -*----------------------------------*\
| solids4foam: solid mechanics and fluid-solid interaction simulations        |
| Version:     v2.0                                                           |
| Web:         https://solids4foam.github.io                                  |
| Disclaimer:  This offering is not approved or endorsed by OpenCFD Limited,  |
|              producer and distributor of the OpenFOAM software via          |
|              www.openfoam.com, and owner of the OPENFOAM® and OpenCFD®      |
|              trade marks.                                                   |
\*---------------------------------------------------------------------------*/
FoamFile
{
    version     2.0;
    format      ascii;
    class       dictionary;
    location    "constant";
    object      solidProperties;
}
// * * * * * * * * * * * * * * * * * * * * * * * * * * * * * * * * * * * * * //

// linearGeometry: assumes small strains and rotations
solidModel     explicitLinearGeometryTotalDisplacement;

explicitLinearGeometryTotalDisplacementCoeffs
{
    // Linear bulk viscosity coefficient to kill high frequency oscillations
    // Defaults to 0.06
    linearBulkViscosityCoeff 0.06;

    // Scale factor for JST smoothing term to quell checkerboarding
    // Note: the solver can explode if this is too small or too large :)
    JSTScaleFactor   0.1;

    // Numerical viscosity for 1st temporal derivative term
    numericalViscosity    eta [ 0 0 -1 0 0 0 0 ] 0;

    // Frequency at which time-step energy information is printed to the std out
    infoFrequency 1000;
}

// ************************************************************************* //
