/*--------------------------------*- C++ -*----------------------------------*\
| =========                 |                                                 |
| \\      /  F ield         | OpenFOAM Extend Project: Open Source CFD        |
|  \\    /   O peration     | Version:  1.6-ext                               |
|   \\  /    A nd           | Web:      www.extend-project.de                 |
|    \\/     M anipulation  |                                                 |
\*---------------------------------------------------------------------------*/
FoamFile
{
    version     2.0;
    format      ascii;
    class       dictionary;
    location    "constant/polyMesh";
    object      blockMeshDict;
}
// * * * * * * * * * * * * * * * * * * * * * * * * * * * * * * * * * * * * * //

// Model Description
// Axisymmetric cylinder mesh with compression die

// Setup m4 stuff



// define geometry in mm

 // half length of cylinder
 // cylinder radius
 // angle of wedge in degrees

// calculated quantities




// define mesh density
 // number of cells in length direction (refined region)
 // number of cells in length direction
 // number of cells in radial direction
 // x-coordinate where refined region ends

// start of blockMeshDict

convertToMeters 0.001;

vertices
(
    //- dimension in mm
    (0 0 0)
    (9.33345 0 0)
    (26.667 0 0)
    (26.667 6.41275581261053 -0.0559632721510757)
    (9.33345 6.41275581261053 -0.0559632721510757)
    (0 6.41275581261053 -0.0559632721510757)
    (26.667 6.41275581261053 0.0559632721510757)
    (9.33345 6.41275581261053 0.0559632721510757)
    (0 6.41275581261053 0.0559632721510757)
);

blocks
(
    hex (0 1 4 5 0 1 7 8) billet (40 10 1) simpleGrading (1 1 1)
    hex (1 2 3 4 1 2 6 7) billet (20 10 1) simpleGrading (1 1 1)
);

edges
(
);

patches
(   symmetryPlane symmPlane
    (
        (0 8 5 0)
    )

    patch loading
    (
        (2 6 3 2)
    )

    patch tracFree
    (
        (3 4 7 6)
        (4 5 8 7)
    )

    wedge back
    (
        (5 4 1 0)
        (4 3 2 1)
    )

    wedge front
    (
        (0 1 7 8)
        (1 2 6 7)
    )

    empty axis
    (
        (0 1 1 0) 
        (1 2 2 1) 
    )
);

mergePatchPairs
(
);

// ************************************************************************* //
