/*--------------------------------*- C++ -*----------------------------------*\
| =========                 |                                                 |
| \\      /  F ield         | foam-extend: Open Source CFD                    |
|  \\    /   O peration     | Version:     4.1                                |
|   \\  /    A nd           | Web:         http://www.foam-extend.org         |
|    \\/     M anipulation  |                                                 |
\*---------------------------------------------------------------------------*/
FoamFile
{
    version     2.0;
    format      ascii;
    class       volVectorField;
    object      DD;
}
// * * * * * * * * * * * * * * * * * * * * * * * * * * * * * * * * * * * * * //

dimensions			[0 1 0 0 0 0 0];

internalField		uniform (0 0 0);

boundaryField
{
	fixed
	{
		type		fixedDisplacement;
		value		uniform (0 0 0);
	}

	free
	{
		type		solidTraction;
		traction	uniform (0 0 0);
		pressure	uniform 0;
		value		uniform (0 0 0);
	}

	top
	{
		type		solidTraction;
		traction	uniform (0 0 0);
		pressureSeries
		{
			fileName	"$FOAM_CASE/constant/timeVsPressure";
			outOfBounds	clamp;
		}
		value		uniform (0 0 0);
	}

	bottom
	{
		type		solidTraction;
		traction	uniform (0 0 0);
		pressure	uniform 0;
		value		uniform (0 0 0);
	}

	left
	{
		type		solidTraction;
		traction	uniform (0 0 0);
		pressure	uniform 0;
		value		uniform (0 0 0);
	}

	right
	{
		type		solidTraction;
		traction	uniform (0 0 0);
		pressure	uniform 0;
		value		uniform (0 0 0);
	}
}


// ************************************************************************* //
