/*--------------------------------*- C++ -*----------------------------------*\
| =========                 |                                                 |
| \\      /  F ield         | foam-extend: Open Source CFD                    |
|  \\    /   O peration     | Version:     3.0                                |
|   \\  /    A nd           | Web:         http://www.extend-project.de       |
|    \\/     M anipulation  |                                                 |
\*---------------------------------------------------------------------------*/
FoamFile
{
    version     2.0;
    format      ascii;
    class       volVectorField;
    object      DD;
}
// * * * * * * * * * * * * * * * * * * * * * * * * * * * * * * * * * * * * * //

dimensions      [0 1 0 0 0 0 0];

internalField   uniform (0 0 0);

boundaryField
{
    left
    {
        type            fixedDisplacementZeroShear;
        value           uniform (0 0 0);
    }
    right
    {
        type            solidTraction;
        tractionSeries
        {
            "fileName|file"    "$FOAM_CASE/constant/timeVsTractionRight";
            outOfBounds clamp;
        }
        pressure        uniform 0;
        value           uniform (0 0 0);
    }
    bottom
    {
        type            fixedDisplacementZeroShear;
        value           uniform (0 0 0);
    }
    top
    {
        type            solidTraction;
        tractionSeries
        {
            "fileName|file"    "$FOAM_CASE/constant/timeVsTractionUp";
            outOfBounds clamp;
        }
        pressure        uniform 0;
        value           uniform (0 0 0);
    }
    frontAndBack
    {
        type            empty;
    }
}

// ************************************************************************* //
