/*--------------------------------*- C++ -*----------------------------------*\
| =========                 |                                                 |
| \\      /  F ield         | foam-extend: Open Source CFD                    |
|  \\    /   O peration     | Version:     3.0                                |
|   \\  /    A nd           | Web:         http://www.extend-project.de       |
|    \\/     M anipulation  |                                                 |
\*---------------------------------------------------------------------------*/
FoamFile
{
    version     2.0;
    format      ascii;
    class       volScalarField;
    object      sigmaHyd;
}
// * * * * * * * * * * * * * * * * * * * * * * * * * * * * * * * * * * * * * //

dimensions      [1 -1 -2 0 0 0 0];

internalField   uniform 0;

boundaryField
{
    bottom
    {
        type            zeroGradient;
    }
    left
    {
        type            zeroGradient;
    }
   	top 
    {
        type            extrapolatedPressureValue;
		relaxFactor		0.5;
		value			uniform 0;
    }
    right
    {
        type            extrapolatedPressureValue;
		relaxFactor		0.5;
		value			uniform 0;
    }
    frontAndBack
    {
		type             	empty;	
    }
}

// ************************************************************************* //
