FoamFile{version     2.0;format      ascii;class       symmTensorAverageField; object      values;} (0 0 0 0 0 0)
2681
(
(-12351 119.11 -6627.12 -12713.9 963.221 -45849.9)
(-12393.8 134.493 -6473.71 -12723.6 303.369 -46033.8)
(-12547.1 130.385 -6766.67 -12864.9 315.683 -46695.5)
(-12701.1 124.61 -7072.82 -13001.5 325.967 -47322.6)
(-12854.2 117.168 -7398.25 -13131.7 332.784 -47906.4)
(-13004.9 108.098 -7750.08 -13254 334.496 -48438.3)
(-13151.3 97.4946 -8136.51 -13366.8 329.276 -48910.5)
(-13291.6 85.504 -8566.67 -13468.8 315.139 -49315.7)
(-13424.1 72.3063 -9050.7 -13558.7 289.96 -49647.1)
(-13547.5 58.0884 -9599.77 -13635.6 251.48 -49898.7)
(-13660.9 43.0104 -10226.4 -13698.7 197.289 -50064.7)
(-13764 27.1661 -10944.7 -13747.5 124.752 -50139.1)
(-13857.5 10.5428 -11771.9 -13781.5 30.8821 -50115.4)
(-13943.4 -7.01541 -12729.1 -13800.8 -87.8656 -49985.7)
(-14025.7 -25.8404 -13844.1 -13805.7 -235.878 -49739.9)
(-14111 -46.4673 -15155.2 -13796.7 -418.759 -49365.7)
(-14210.8 -69.6555 -16716.1 -13775.6 -643.783 -48846.9)
(-14344.3 -96.3974 -18605.9 -13745.3 -920.398 -48162.5)
(-14545.7 -127.868 -20945.1 -13711.5 -1260.61 -47283.7)
(-14883.9 -165.114 -23929.8 -13686.4 -1678.69 -46173.5)
(-15545.7 -207.802 -27910.5 -13714.7 -2188.44 -44825.9)
(-17265.5 -250.011 -33499.3 -13998.2 -2791.45 -43453.9)
(-23018.5 -269.744 -40754.5 -14887.3 -3435.19 -40777.8)
(-33427.1 -206.712 -44541.9 -8799.53 -3881.2 1445.61)
(-55267.6 -68.8063 -21374 -7370.09 -4056.74 31155)
(-12351 119.11 -6627.12 -12713.9 963.221 -45849.9)
(-12244.9 136.729 -6194.58 -12581.9 293.056 -45357.4)
(-12393.8 134.493 -6473.71 -12723.6 303.369 -46033.8)
(-12547.1 130.385 -6766.67 -12864.9 315.683 -46695.5)
(-12701.1 124.61 -7072.82 -13001.5 325.967 -47322.6)
(-12854.2 117.168 -7398.25 -13131.7 332.784 -47906.4)
(-13004.9 108.098 -7750.08 -13254 334.496 -48438.3)
(-13151.3 97.4946 -8136.51 -13366.8 329.276 -48910.5)
(-13291.6 85.504 -8566.67 -13468.8 315.139 -49315.7)
(-13424.1 72.3063 -9050.7 -13558.7 289.96 -49647.1)
(-13547.5 58.0884 -9599.77 -13635.6 251.48 -49898.7)
(-13660.9 43.0104 -10226.4 -13698.7 197.289 -50064.7)
(-13764 27.1661 -10944.7 -13747.5 124.752 -50139.1)
(-13857.5 10.5428 -11771.9 -13781.5 30.8821 -50115.4)
(-13943.4 -7.01541 -12729.1 -13800.8 -87.8656 -49985.7)
(-14025.7 -25.8404 -13844.1 -13805.7 -235.878 -49739.9)
(-14111 -46.4673 -15155.2 -13796.7 -418.759 -49365.7)
(-14210.8 -69.6555 -16716.1 -13775.6 -643.783 -48846.9)
(-14344.3 -96.3974 -18605.9 -13745.3 -920.398 -48162.5)
(-14545.7 -127.868 -20945.1 -13711.5 -1260.61 -47283.7)
(-14883.9 -165.114 -23929.8 -13686.4 -1678.69 -46173.5)
(-15545.7 -207.802 -27910.5 -13714.7 -2188.44 -44825.9)
(-17265.5 -250.011 -33499.3 -13998.2 -2791.45 -43453.9)
(-23018.5 -269.744 -40754.5 -14887.3 -3435.19 -40777.8)
(-33427.1 -206.712 -44541.9 -8799.53 -3881.2 1445.61)
(-12393.8 134.493 -6473.71 -12723.6 303.369 -46033.8)
(-12282 150.679 -6013.06 -12586.7 -314.319 -45508.8)
(-12433.8 147.339 -6287.84 -12730 -336.182 -46191.6)
(-12587.6 141.739 -6574.35 -12870.5 -357.66 -46847.2)
(-12741.1 133.993 -6875.48 -13005.5 -382.94 -47462.8)
(-12892.7 124.077 -7197.8 -13133.5 -414.104 -48029.4)
(-13040.6 112.007 -7548.96 -13252.7 -453.598 -48538.6)
(-13182.9 97.8583 -7937.59 -13361.6 -504.204 -48982.7)
(-13317.8 81.7518 -8373.28 -13459 -569.031 -49354.7)
(-13443.6 63.8231 -8866.5 -13543.7 -651.51 -49648.6)
(-13559 44.1805 -9428.74 -13614.9 -755.449 -49858.6)
(-13663.5 22.8513 -10072.8 -13672 -885.126 -49979.8)
(-13757 -0.278737 -10813.4 -13714.7 -1045.48 -50006.7)
(-13840.4 -25.5302 -11668.1 -13743.1 -1242.43 -49933)
(-13916.3 -53.4963 -12659.3 -13757.6 -1483.33 -49751.1)
(-13989.1 -85.1149 -13816.4 -13759.1 -1777.64 -49450.9)
(-14066.1 -121.754 -15180 -13749.4 -2137.77 -49019.7)
(-14159.7 -165.336 -16807.8 -13731.8 -2580.33 -48440.6)
(-14290.4 -218.561 -18784.3 -13711.8 -3127.7 -47691.1)
(-14494.8 -285.38 -21239.3 -13699.8 -3810.34 -46738.7)
(-14846.3 -372.192 -24383.6 -13717.1 -4670.31 -45538.2)
(-15540.8 -491.337 -28596 -13828.6 -5767.32 -44066.9)
(-17323.4 -669.196 -34548.6 -14289.9 -7174.41 -42510.2)
(-23090.2 -941.398 -42425.3 -15596.4 -8779.08 -39473.7)
(-32982.5 -945.273 -47074.9 -10449.4 -8938.01 4769.8)
(-12433.8 147.339 -6287.84 -12730 -336.182 -46191.6)
(-12315.1 162.914 -5800.4 -12587 -904.349 -45629.5)
(-12469 158.351 -6069.33 -12731.4 -955.284 -46316.2)
(-12622.6 151.068 -6348.54 -12871.3 -1006.45 -46964.6)
(-12775.1 141.175 -6643.53 -13005.1 -1063.33 -47568.2)
(-12924.5 128.634 -6961.31 -13131.1 -1128.71 -48117.6)
(-13069.1 113.449 -7309.94 -13247.7 -1205.89 -48604.8)
(-13206.9 95.6816 -7698.42 -13353.4 -1298.62 -49022)
(-13336.1 75.4316 -8136.66 -13447 -1411.13 -49362.7)
(-13455 52.7861 -8635.45 -13527.5 -1548.2 -49621.1)
(-13562.6 27.758 -9206.56 -13594.3 -1715.2 -49792.2)
(-13658.3 0.208267 -9863.16 -13646.8 -1918.34 -49871.3)
(-13742.4 -30.2439 -10620.4 -13685.4 -2165.03 -49853.2)
(-13816.2 -64.3229 -11496.6 -13710.4 -2464.42 -49732)
(-13882.4 -103.215 -12515.4 -13723 -2828.27 -49499.9)
(-13945.9 -148.725 -13707.8 -13725.1 -3272.13 -49146.8)
(-14014.5 -203.511 -15117 -13720.2 -3817.16 -48659.4)
(-14100.9 -271.514 -16804.2 -13714.1 -4492.76 -48019.5)
(-14226 -358.839 -18859 -13716.7 -5340.83 -47201.5)
(-14426.9 -475.855 -21418.2 -13745.8 -6423.28 -46165.6)
(-14779.6 -643.359 -24704.1 -13839 -7837.88 -44848.5)
(-15491.5 -916.264 -29115.6 -14106.1 -9755.59 -43187)
(-17302.4 -1489.59 -35348.3 -14964.5 -12472.9 -41203.1)
(-22497.6 -3142.53 -43496.9 -17463.4 -16106.3 -36083.1)
(-26479.8 -7410.89 -47672.5 -14932.2 -19057.2 22490.3)
(-12469 158.351 -6069.33 -12731.4 -955.284 -46316.2)
(-12342.8 173.79 -5556.62 -12582 -1476.07 -45713.8)
(-12491.3 168.148 -5811.73 -12721.7 -1542.27 -46375.7)
(-12637.7 159.617 -6074.66 -12855.7 -1607.66 -46992.3)
(-12782.7 148.308 -6353.1 -12984.1 -1679.82 -47566.1)
(-12924.7 134.179 -6653.53 -13105.5 -1761.77 -48088.8)
(-13062 117.219 -6983.4 -13218.2 -1857.12 -48552.2)
(-13192.8 97.4661 -7351.06 -13320.9 -1969.95 -48949.4)
(-13315.4 74.9879 -7765.73 -13412.4 -2104.94 -49273.7)
(-13428.2 49.8284 -8237.43 -13491.8 -2267.34 -49519.8)
(-13530.2 21.9424 -8777.16 -13558.3 -2463.17 -49682.6)
(-13620.7 -8.88898 -9397.16 -13611.8 -2699.4 -49757.7)
(-13699.9 -43.1601 -10111.5 -13652.4 -2984.41 -49740.2)
(-13768.7 -81.7608 -10937 -13680.7 -3328.61 -49624.6)
(-13829.4 -126.127 -11895 -13698.1 -3745.42 -49404)
(-13886.2 -178.449 -13013.3 -13707.2 -4252.75 -49069.5)
(-13945.6 -242.004 -14329.8 -13711.9 -4875.14 -48608.9)
(-14017.9 -321.769 -15897.7 -13719 -5647.15 -48006.4)
(-14120.1 -425.674 -17793.6 -13740.3 -6618.99 -47239)
(-14281.3 -567.469 -20132 -13796.8 -7866.88 -46271.6)
(-14559.3 -774.678 -23094.7 -13932.5 -9515.68 -45050)
(-15109.9 -1119.29 -26997 -14275.6 -11793.3 -43528.9)
(-16482.1 -1869.44 -32357.4 -15312 -15108.2 -41770.9)
(-20262.2 -4247.33 -39156.5 -18523.6 -19629.6 -37594.7)
(-21944.7 -11697.3 -42893.6 -19983.3 -23386.3 9160.41)
(-12491.3 168.148 -5811.73 -12721.7 -1542.27 -46375.7)
(-12365.8 183.595 -5284.07 -12572.5 -2030.64 -45765.4)
(-12508.2 177.057 -5523.94 -12707.4 -2110.38 -46400.7)
(-12646.6 167.622 -5768.82 -12835.4 -2188.96 -46985.6)
(-12783.7 155.334 -6028.42 -12958.6 -2275.14 -47531)
(-12918.1 140.143 -6308.59 -13075.5 -2372.01 -48028.8)
(-13048 122.023 -6616.03 -13184.6 -2483.28 -48471.7)
(-13171.8 100.987 -6958.32 -13284.8 -2613.22 -48852.6)
(-13288 77.0683 -7343.85 -13374.7 -2766.69 -49165.4)
(-13395.1 50.2712 -7781.83 -13453.4 -2949.21 -49404.5)
(-13491.9 20.5072 -8282.34 -13520.4 -3167.12 -49565.3)
(-13577.9 -12.4914 -8856.64 -13575.3 -3427.79 -49643)
(-13652.8 -49.278 -9517.56 -13618.3 -3740.08 -49633.3)
(-13717.5 -90.823 -10280.4 -13650.2 -4115 -49530.9)
(-13773.7 -138.685 -11164 -13672.3 -4566.7 -49329.9)
(-13824.7 -195.252 -12193 -13687.4 -5114.06 -49022.2)
(-13876 -264.141 -13400.4 -13699.8 -5782.96 -48597.6)
(-13936.1 -350.909 -14831.7 -13716.6 -6609.96 -48042.3)
(-14019.1 -464.507 -16552 -13750.3 -7648.39 -47337)
(-14148.8 -620.523 -18657.9 -13823 -8979.7 -46452.6)
(-14372.9 -849.938 -21301.6 -13981.4 -10738.1 -45348)
(-14824.1 -1232.18 -24745.1 -14361.2 -13168.6 -44010)
(-15998.5 -2055.8 -29407.5 -15473.1 -16696 -42592.5)
(-19438.8 -4625.65 -35162.3 -18899.5 -21322.2 -39332.3)
(-21433 -12649.7 -38089.7 -20973.5 -23662.7 2632.39)
(-12508.2 177.057 -5523.94 -12707.4 -2110.38 -46400.7)
(-12384.9 192.752 -4983.45 -12559.1 -2570.08 -45786.8)
(-12521.9 185.546 -5208.32 -12690.2 -2664.15 -46400.3)
(-12653.8 175.475 -5435.78 -12813.6 -2757.01 -46959.9)
(-12784.3 162.496 -5677.16 -12932.8 -2858.08 -47482.5)
(-12912 146.536 -5937.73 -13046.4 -2970.58 -47960.7)
(-13035.6 127.545 -6223.61 -13153 -3098.32 -48387.3)
(-13153.3 105.512 -6541.74 -13251.3 -3245.7 -48755.5)
(-13263.8 80.435 -6899.83 -13340.2 -3417.75 -49059.2)
(-13365.6 52.2821 -7306.42 -13418.8 -3620.23 -49292.9)
(-13457.7 20.9237 -7770.91 -13486.4 -3859.75 -49451.8)
(-13539.3 -13.9546 -8303.81 -13542.6 -4144.04 -49531.3)
(-13610.3 -52.9643 -8917.13 -13587.7 -4482.37 -49526.9)
(-13671 -97.1567 -9625.09 -13622.4 -4886.21 -49433.8)
(-13723 -148.214 -10445.3 -13648.2 -5370.34 -49246.1)
(-13769.2 -208.725 -11400.1 -13667.9 -5954.35 -48956.8)
(-13814.1 -282.635 -12519.9 -13685.9 -6665.13 -48556.4)
(-13865.4 -376.055 -13846.1 -13709.5 -7540.62 -48032.6)
(-13935.5 -498.875 -15438 -13751.4 -8636.19 -47367.4)
(-14046.3 -668.361 -17383.8 -13833.8 -10036.3 -46534.2)
(-14242.2 -918.83 -19823.9 -14003.7 -11879.6 -45494.7)
(-14652.1 -1337.41 -23004.4 -14396.1 -14416.1 -44237.8)
(-15764.4 -2230.64 -27325.5 -15512 -18069.8 -42895.8)
(-19078.8 -4925.87 -32682.4 -18866.9 -22818 -39587.3)
(-20931.4 -13085.5 -35446.5 -20795.1 -25202.5 2070.27)
(-12521.9 185.546 -5208.32 -12690.2 -2664.15 -46400.3)
(-12400.5 201.556 -4654.83 -12541.9 -3095.2 -45778.9)
(-12533 193.919 -4864.8 -12670.1 -3204.37 -46375.6)
(-12659.5 183.465 -5075.31 -12790.3 -3312.52 -46916.1)
(-12784.7 170.058 -5298.92 -12906.7 -3429.39 -47421.9)
(-12907.1 153.598 -5540.45 -13018 -3558.29 -47885.7)
(-13025.4 134.012 -5805.52 -13123 -3703.13 -48300.6)
(-13138.1 111.264 -6100.52 -13220.4 -3868.42 -48659.9)
(-13243.8 85.3241 -6432.63 -13309.1 -4059.38 -48957.5)
(-13341.2 56.1263 -6809.85 -13388 -4281.97 -49187.9)
(-13429.3 23.5053 -7241.04 -13456.6 -4543.04 -49346.1)
(-13507.2 -12.8932 -7736.2 -13514.5 -4850.62 -49427.5)
(-13574.7 -53.7292 -8306.76 -13561.7 -5214.32 -49427.4)
(-13632.2 -100.12 -8966.32 -13599 -5646.04 -49341.1)
(-13680.9 -153.848 -9731.65 -13628 -6161 -49162.8)
(-13723.4 -217.66 -10624.2 -13651.3 -6779.38 -48885.8)
(-13764.1 -295.756 -11672.8 -13673.6 -7528.76 -48501.2)
(-13810.1 -394.663 -12917.1 -13702.1 -8448.01 -47997.2)
(-13873.3 -524.963 -14413.8 -13749.6 -9593.79 -47356.5)
(-13974.9 -705.107 -16248.2 -13838.3 -11052.4 -46552.6)
(-14159.6 -971.583 -18557.7 -14015.1 -12964.9 -45547.3)
(-14558.1 -1415.61 -21587.3 -14415.1 -15585.2 -44326.9)
(-15663.9 -2350.1 -25742 -15537.2 -19339.2 -43012.4)
(-18970.7 -5099.29 -30940.4 -18875.9 -24198.5 -39678.3)
(-20840.9 -13273 -33640.5 -20788.3 -26688.2 1801.93)
(-12533 193.919 -4864.8 -12670.1 -3204.37 -46375.6)
(-12412.9 210.208 -4297.9 -12521 -3606.7 -45743.2)
(-12542 202.388 -4492.84 -12647.3 -3731.76 -46328.1)
(-12664.6 191.789 -4686.71 -12765.4 -3856.21 -46855.8)
(-12785.6 178.202 -4892.86 -12880.2 -3989.81 -47350.7)
(-12904 161.497 -5115.74 -12990.5 -4135.94 -47805.6)
(-13018.3 141.583 -5360.55 -13095 -4298.61 -48213.6)
(-13127.1 118.4 -5633.25 -13192.4 -4482.46 -48568.2)
(-13229.1 91.8922 -5940.57 -13281.6 -4692.86 -48863.2)
(-13323 61.9665 -6290.07 -13361.7 -4935.96 -49093.1)
(-13407.8 28.4285 -6690.21 -13431.9 -5218.85 -49252.6)
(-13482.8 -9.10699 -7150.58 -13491.8 -5549.81 -49336.9)
(-13547.5 -51.3356 -7682.28 -13541.3 -5938.77 -49341.3)
(-13602.5 -99.4212 -8298.5 -13581.3 -6397.94 -49260.8)
(-13648.7 -155.213 -9015.59 -13613.2 -6942.93 -49089.7)
(-13688.7 -221.566 -9854.63 -13639.6 -7594.32 -48821.2)
(-13726.6 -302.846 -10843.7 -13665 -8380.14 -48446.7)
(-13769.4 -405.852 -12021.9 -13697 -9339.83 -47954.5)
(-13829 -541.591 -13445.4 -13747.8 -10530.7 -47327.6)
(-13926.7 -729.183 -15198.8 -13839.9 -12039.9 -46539.4)
(-14107.7 -1006.15 -17420 -14019.8 -14009.8 -45551)
(-14505.2 -1465.26 -20356.2 -14422.7 -16695.2 -44348.7)
(-15616.4 -2421.01 -24418.2 -15547.4 -20521.3 -43050.1)
(-18930.3 -5192.81 -29534.5 -18879.6 -25448.1 -39710)
(-20814.5 -13358.8 -32188.5 -20784.5 -27991.9 1645.81)
(-12542 202.388 -4492.84 -12647.3 -3731.76 -46328.1)
(-12422.8 218.793 -3911.97 -12496.3 -4105.1 -45681.2)
(-12549.5 211.035 -4091.59 -12621.7 -4246.84 -46259.3)
(-12669.6 200.517 -4268.93 -12739.1 -4388.65 -46780.8)
(-12788 186.979 -4457.76 -12853.6 -4539.94 -47270.9)
(-12903.7 170.268 -4662.21 -12963.9 -4704.19 -47722.5)
(-13015.3 150.277 -4887.12 -13069 -4885.52 -48128.9)
(-13121.5 126.925 -5138.08 -13167.5 -5088.7 -48483.5)
(-13220.9 100.136 -5421.49 -13258.3 -5319.26 -48780)
(-13312.4 69.7944 -5744.53 -13340.3 -5583.52 -49012.7)
(-13394.9 35.6852 -6115.35 -13412.8 -5888.81 -49176.2)
(-13467.7 -2.59667 -6543.24 -13475.2 -6243.67 -49265.4)
(-13530.5 -45.7673 -7039.02 -13527.6 -6658.27 -49275.3)
(-13583.5 -95.0152 -7615.67 -13570.5 -7145.15 -49200.8)
(-13627.9 -152.225 -8289.35 -13605.3 -7720.17 -49036)
(-13666.1 -220.303 -9080.96 -13634.6 -8404.22 -48774)
(-13702.1 -303.709 -10018.5 -13662.8 -9225.61 -48406.2)
(-13743 -409.378 -11140.9 -13697.3 -10224 -47920.8)
(-13800.8 -548.531 -12504.5 -13750.3 -11457 -47300.9)
(-13896.9 -740.585 -14194.5 -13844 -13011.9 -46519.8)
(-14077.1 -1023.44 -16349.9 -14024.8 -15031 -45538.7)
(-14475.9 -1490.3 -19220.1 -14428.1 -17769 -44344.3)
(-15592.2 -2455.89 -23219.3 -15553 -21648 -43053.3)
(-18909.3 -5236.56 -28280.3 -18880.6 -26617.8 -39708.4)
(-20794.6 -13393 -30896.9 -20777.1 -29189.6 1573.92)
(-12549.5 211.035 -4091.59 -12621.7 -4246.84 -46259.3)
(-12430.7 227.256 -3496.07 -12468 -4590.59 -45594.6)
(-12556.2 219.795 -3659.87 -12593.5 -4749.84 -46171.1)
(-12675.3 209.565 -3820.66 -12711.4 -4910.05 -46693.1)
(-12792.7 196.28 -3992.15 -12826.8 -5080.03 -47184.8)
(-12907.2 179.778 -4178.18 -12938.5 -5263.37 -47639.3)
(-13017.5 159.936 -4383.32 -13045.4 -5464.26 -48049.7)
(-13122.4 136.658 -4612.88 -13146.1 -5687.65 -48409.4)
(-13220.5 109.85 -4872.92 -13239.5 -5939.23 -48712)
(-13310.7 79.3843 -5170.37 -13324.4 -6225.53 -48951.5)
(-13391.9 45.0341 -5513.09 -13400.1 -6554.12 -49122.2)
(-13463.5 6.38735 -5910.13 -13465.9 -6933.78 -49218.9)
(-13525.1 -37.2755 -6372.12 -13521.7 -7374.97 -49236.2)
(-13576.9 -87.1436 -6911.87 -13568 -7890.49 -49168.7)
(-13620 -145.102 -7545.45 -13606.2 -8496.49 -49010.4)
(-13656.9 -214.064 -8293.68 -13638.6 -9214.08 -48754.1)
(-13691.6 -298.503 -9184.61 -13669.7 -10071.7 -48391)
(-13731.3 -405.387 -10257.4 -13706.5 -11109.2 -47909.2)
(-13787.8 -545.994 -11568.6 -13761.2 -12384.1 -47291.8)
(-13883.1 -739.824 -13204 -13855.8 -13983.2 -46512.3)
(-14063.1 -1024.88 -15303.9 -14036.5 -16048.5 -45531.9)
(-14463.1 -1494.49 -18119.7 -14438.6 -18833.3 -44337.7)
(-15582.5 -2463.43 -22068.1 -15561.9 -22757.4 -43047.2)
(-18902.3 -5247.4 -27087.5 -18887.6 -27763.5 -39700.6)
(-20800.4 -13406.3 -29680.8 -20792.3 -30362.7 1543.28)
(-12556.2 219.795 -3659.87 -12593.5 -4749.84 -46171.1)
(-12437.5 235.397 -3049.06 -12436 -5063.01 -45485.2)
(-12562.9 228.447 -3196.39 -12562.6 -5240.54 -46065.5)
(-12682.6 218.686 -3340.48 -12682.4 -5420.25 -46595)
(-12800.4 205.829 -3494.45 -12800.1 -5609.95 -47095.2)
(-12915.3 189.719 -3661.92 -12914.6 -5813.33 -47559)
(-13025.9 170.218 -3847.22 -13024.5 -6034.73 -47979.5)
(-13131 147.218 -4055.42 -13128.7 -6279.27 -48349.9)
(-13229.2 120.617 -4292.36 -13225.8 -6552.83 -48663.6)
(-13319.3 90.2827 -4564.69 -13314.7 -6862.22 -48914.3)
(-13400.4 55.9895 -4880.07 -13394.6 -7215.25 -49096.1)
(-13471.6 17.3334 -5247.33 -13464.7 -7621.01 -49203.4)
(-13532.7 -26.3891 -5676.92 -13524.9 -8090.29 -49230.4)
(-13583.9 -76.3424 -6181.51 -13575.5 -8636.21 -49171.5)
(-13626.3 -134.377 -6777.05 -13617.7 -9275.24 -49020.3)
(-13662.3 -203.358 -7484.3 -13654 -10028.7 -48769.3)
(-13695.9 -287.704 -8331.33 -13688.4 -10925.4 -48409.6)
(-13734.3 -394.311 -9357.35 -13728 -12005 -47929)
(-13789.6 -534.377 -10619.2 -13784.8 -13325 -47310.7)
(-13883.8 -727.318 -12203.1 -13880.4 -14971.7 -46527.9)
(-14063.2 -1011.06 -14250.2 -14060.6 -17085.9 -45542.4)
(-14463 -1478.84 -17013.1 -14460.2 -19919.3 -44341.2)
(-15582 -2445.24 -20911.5 -15578.4 -23889 -43042.5)
(-18900.3 -5225.54 -25891.8 -18898.2 -28933.6 -39693.7)
(-20792.8 -13378 -28462.3 -20793.1 -31560.1 1546.62)
(-12562.9 228.447 -3196.39 -12562.6 -5240.54 -46065.5)
(-12443.4 242.885 -2569.73 -12400.6 -5521.71 -45354.8)
(-12570.1 236.63 -2699.84 -12529.2 -5718.27 -45944.4)
(-12692 227.485 -2826.97 -12652.3 -5918.57 -46488.8)
(-12812 215.2 -2963.13 -12773.7 -6129 -47004.7)
(-12928.9 199.624 -3111.74 -12892.3 -6353.37 -47484.9)
(-13041.5 180.611 -3276.96 -13006.7 -6596.2 -47922.1)
(-13148.2 158.046 -3463.67 -13115.6 -6862.81 -48309.3)
(-13247.9 131.829 -3677.49 -13217.8 -7159.37 -48639.6)
(-13339.3 101.835 -3924.89 -13312 -7492.99 -48906.4)
(-13421.3 67.8537 -4213.32 -13397.3 -7871.83 -49103.3)
(-13493.2 29.5069 -4551.41 -13472.9 -8305.39 -49224.5)
(-13554.6 -13.8713 -4949.41 -13538.5 -8804.87 -49263.7)
(-13605.7 -63.3924 -5419.83 -13594.5 -9383.86 -49214.9)
(-13647.7 -120.832 -5978.43 -13641.8 -10059.3 -49071.3)
(-13682.7 -188.957 -6645.84 -13682.9 -10853 -48825.2)
(-13715.1 -272.044 -7449.97 -13721.9 -11794 -48467.1)
(-13751.8 -376.8 -8429.87 -13765.6 -12922.5 -47984.9)
(-13805.2 -514.173 -9642.28 -13825.7 -14295.9 -47361.4)
(-13897.5 -703.261 -11173.5 -13923.6 -16000.3 -46570.3)
(-14075.1 -981.633 -13164.6 -14104.6 -18175 -45573.6)
(-14473.4 -1442.15 -15869 -14501.9 -21069.2 -44358.5)
(-15590.4 -2399.17 -19709.4 -15612.9 -25096.7 -43044.9)
(-18910.1 -5170.25 -24644.3 -18925.7 -30192.3 -39696.5)
(-20812.5 -13329.1 -27192.4 -20822.2 -32858.9 1577.11)
(-12570.1 236.63 -2699.84 -12529.2 -5718.27 -45944.4)
(-12449 249.294 -2056.91 -12362 -5965.53 -45205.1)
(-12578.3 243.871 -2169.01 -12493.4 -6181.81 -45809.7)
(-12704.1 235.453 -2278.89 -12621.3 -6403.77 -46377.1)
(-12828.1 223.845 -2396.87 -12747.9 -6635.89 -46916.4)
(-12948.8 208.9 -2526.26 -12872 -6882.12 -47420.4)
(-13064.9 190.471 -2671.06 -12992.4 -7147.21 -47881.4)
(-13174.9 168.448 -2836.01 -13107.6 -7436.76 -48291.9)
(-13277.5 142.742 -3026.56 -13216.3 -7757.31 -48644.6)
(-13371.4 113.25 -3249.02 -13317.2 -8116.36 -48932.5)
(-13455.5 79.7931 -3510.62 -13409.3 -8522.59 -49148.8)
(-13528.9 42.0375 -3819.82 -13491.7 -8986.04 -49287)
(-13591.3 -0.622253 -4186.64 -13564 -9518.53 -49340.6)
(-13642.7 -49.2148 -4623.34 -13626.6 -10134.3 -49303)
(-13684.3 -105.402 -5145.43 -13680.5 -10851.2 -49166.9)
(-13718.3 -171.788 -5773.21 -13728 -11691.7 -48924)
(-13748.7 -252.416 -6534.2 -13773.2 -12686.1 -48564.6)
(-13782.8 -353.655 -7466.99 -13823.1 -13875.3 -48076.2)
(-13832.9 -485.943 -8627.64 -13889.4 -15317.7 -47441.5)
(-13921.4 -667.634 -10101.6 -13993.1 -17099.9 -46634.6)
(-14095.3 -935.208 -12028.8 -14178.6 -19360.5 -45618.1)
(-14489.9 -1380.04 -14661.5 -14576.7 -22345.8 -44380.4)
(-15603.3 -2315.15 -18424.4 -15680.3 -26462.3 -43045)
(-18926.9 -5062.93 -23289.3 -18981.7 -31634.6 -39698)
(-20835.8 -13227.7 -25791.9 -20863.9 -34345.2 1667.05)
(-12578.3 243.871 -2169.01 -12493.4 -6181.81 -45809.7)
(-12454.5 254.158 -1509.55 -12320.4 -6392.83 -45037.9)
(-12587.6 249.637 -1602.91 -12455.7 -6629.34 -45663.3)
(-12719.3 242.008 -1695.27 -12589.8 -6874.03 -46261.9)
(-12849 231.139 -1794.74 -12723.1 -7128.72 -46833.1)
(-12975.2 216.879 -1904.54 -12854.4 -7397.56 -47368.8)
(-13096.6 199.087 -2028.6 -12982.3 -7685.6 -47861)
(-13211.5 177.67 -2171.51 -13105.4 -7998.83 -48301.6)
(-13318.5 152.565 -2338.61 -13222.1 -8344.26 -48682.8)
(-13416.2 123.703 -2536.03 -13331.3 -8730.01 -48996.8)
(-13503.4 90.9544 -2770.82 -13431.6 -9165.4 -49236.5)
(-13579.2 54.0482 -3051.22 -13522.3 -9661.28 -49394.6)
(-13643 12.4603 -3387 -13602.8 -10230.4 -49464.1)
(-13694.9 -34.7281 -3790.1 -13673.6 -10888.1 -49437.7)
(-13735.9 -89.0271 -4275.63 -13735.7 -11653.5 -49307.5)
(-13768.1 -152.82 -4863.39 -13791.6 -12550.7 -49064.6)
(-13795.6 -229.817 -5580.22 -13845.6 -13611.9 -48698.8)
(-13825.5 -325.868 -6463.72 -13905.1 -14880.5 -48196.9)
(-13870.1 -450.576 -7568.6 -13982.4 -16417.8 -47541.5)
(-13952 -620.903 -8978.24 -14099 -18313.4 -46706.6)
(-14118.6 -870.915 -10829.8 -14299.1 -20709.1 -45655.8)
(-14505.5 -1287.74 -13371.9 -14710.9 -23850.8 -44380.5)
(-15613.2 -2178.45 -17027.6 -15820.8 -28137.3 -43015.8)
(-18952.7 -4870.19 -21778.9 -19124.8 -33464.8 -39691.8)
(-20869.8 -13021 -24192.4 -20980.5 -36226 1840.33)
(-12587.6 249.637 -1602.91 -12455.7 -6629.34 -45663.3)
(-12460.1 257.021 -926.78 -12276.1 -6801.44 -44854.8)
(-12598.3 253.378 -1000.93 -12416.1 -7058.5 -45506.8)
(-12737.6 246.546 -1075.61 -12558 -7326.95 -46145.6)
(-12874.9 236.443 -1156.34 -12699.8 -7604.97 -46757.3)
(-13008.5 222.895 -1246.33 -12840 -7897.01 -47333.1)
(-13136.8 205.777 -1349.43 -12977.2 -8208.52 -47864.2)
(-13258.2 185.018 -1470.14 -13109.8 -8546.03 -48341.9)
(-13370.9 160.594 -1613.66 -13236.3 -8917.2 -48757.5)
(-13473.6 132.484 -1785.99 -13355.3 -9330.92 -49102.6)
(-13564.8 100.623 -1993.98 -13465.5 -9797.49 -49369)
(-13643.6 64.815 -2245.6 -13565.9 -10328.9 -49549)
(-13709.2 24.634 -2550.33 -13656.2 -10939.2 -49634.6)
(-13761.6 -20.7135 -2919.69 -13736.8 -11645.5 -49618)
(-13801.6 -72.5627 -3368.28 -13808.9 -12468.9 -49490.4)
(-13831.2 -133.037 -3915.18 -13875.7 -13436.4 -49242.2)
(-13854.4 -205.436 -4586.25 -13941.9 -14583.6 -48862.1)
(-13878.2 -294.936 -5417.62 -14016.3 -15959.2 -48336.1)
(-13914.9 -409.99 -6461.74 -14112.9 -17631.2 -47645.9)
(-13987 -565.511 -7798.55 -14255.7 -19698.6 -46764.1)
(-14142.3 -791.64 -9560.13 -14492.3 -22315.9 -45652.9)
(-14518 -1167.13 -11989.5 -14953.9 -25744.8 -44303)
(-15625.9 -1981.3 -15511.8 -16131.9 -30398.2 -42872.7)
(-19042.5 -4542.72 -20141.3 -19559.6 -36135.3 -39603.1)
(-21080.4 -12558.1 -22544.8 -21525.7 -39026.4 2295.07)
(-12598.3 253.378 -1000.93 -12416.1 -7058.5 -45506.8)
(-12464.8 257.41 -309.777 -12228.9 -7185.65 -44654.1)
(-12610.3 254.412 -362.923 -12375.2 -7466.29 -45341.8)
(-12759.4 248.344 -419.975 -12526.8 -7759.47 -46030.1)
(-12906.2 239.027 -482.014 -12678.8 -8061.49 -46691.3)
(-13049.1 226.241 -552.23 -12829.7 -8377.18 -47315.9)
(-13186.2 209.867 -634.393 -12978 -8712.55 -47893.9)
(-13315.5 189.861 -732.921 -13121.9 -9074.82 -48415.6)
(-13435.4 166.236 -852.905 -13259.9 -9472.51 -48871.3)
(-13544.1 139.032 -1000.16 -13390.2 -9915.62 -49251.6)
(-13640 108.249 -1181.33 -13511.6 -10415.7 -49547.4)
(-13722 73.774 -1404.09 -13623.1 -10986.3 -49750)
(-13789.3 35.2765 -1677.52 -13724.3 -11643.5 -49850.7)
(-13841.6 -7.91796 -2012.66 -13815.7 -12406.7 -49840.4)
(-13879.7 -56.9838 -2423.43 -13899.3 -13300.2 -49709.8)
(-13905.4 -113.804 -2928.01 -13978.6 -14355.5 -49448)
(-13922.4 -181.289 -3550.92 -14060.1 -15614.4 -49042.5)
(-13937.2 -263.932 -4326.29 -14154.6 -17134.5 -48477.8)
(-13961.9 -368.959 -5303.25 -14279.8 -18997.6 -47733.1)
(-14018.3 -508.998 -6556.08 -14466.3 -21324 -46777)
(-14152.2 -709.832 -8206.65 -14772.8 -24301.7 -45561.8)
(-14495 -1041.4 -10479.7 -15353.6 -28248.8 -44051.5)
(-15537.7 -1772.03 -13786.2 -16747.9 -33673.5 -42315.9)
(-18754.6 -4132.83 -18322.3 -20518.7 -40508.4 -38145.9)
(-20103.4 -11568.1 -22224 -22079.8 -44148.5 8848.18)
(-12610.3 254.412 -362.923 -12375.2 -7466.29 -45341.8)
(-12465.2 254.453 344.77 -12176.1 -7538.27 -44420.9)
(-12621.6 251.94 315.03 -12331.4 -7847.58 -45159.7)
(-12780.8 246.721 277.512 -12492.5 -8164.03 -45899.6)
(-12937.8 238.372 236.093 -12654.8 -8488 -46613.5)
(-13090.5 226.638 187.753 -12816.6 -8824.62 -47290.9)
(-13237 211.423 128.938 -12976.4 -9180.32 -47920.8)
(-13375.2 192.718 55.5003 -13132.2 -9562.94 -48492.4)
(-13503 170.592 -37.3115 -13282.4 -9981.82 -48994.9)
(-13618.6 145.147 -154.884 -13425.2 -10448 -49417.6)
(-13720.2 116.467 -303.321 -13559 -10974.2 -49750.7)
(-13806.3 84.5409 -489.611 -13682.9 -11575.7 -49984.3)
(-13876.1 49.1701 -721.941 -13796.5 -12270.3 -50108.8)
(-13929.1 9.85298 -1010.19 -13900.4 -13079.9 -50114.5)
(-13965.7 -34.3423 -1366.73 -13997.2 -14032 -49990.9)
(-13987.3 -84.9354 -1807.56 -14091.2 -15162.6 -49726.5)
(-13997.1 -144.253 -2354.05 -14190.9 -16520.4 -49307.9)
(-14001 -215.793 -3035.42 -14310.1 -18173.2 -48718.6)
(-14009.7 -304.952 -3892.82 -14472.5 -20219.7 -47936.9)
(-14042.8 -420.819 -4986.49 -14719.4 -22808.4 -46930.2)
(-14141.2 -581.893 -6411.17 -15131.8 -26178.2 -45649.1)
(-14421.9 -839.864 -8334.09 -15919 -30744.3 -44053.4)
(-15312.7 -1389.3 -11054.6 -17806.4 -37194.9 -42187.8)
(-17838.9 -3024.39 -14730.7 -23022.4 -45498.1 -37104.8)
(-14897.3 -7277.4 -17964.9 -26540.6 -49279.9 23012.5)
(-12621.6 251.94 315.03 -12331.4 -7847.58 -45159.7)
(-12462.9 247.444 1038.21 -12119.8 -7859.27 -44163.5)
(-12624.6 245.612 1046.23 -12277.7 -8190.39 -44925.9)
(-12788 241.543 1046.28 -12440.7 -8522.85 -45687.4)
(-12950.2 234.741 1044.23 -12606.3 -8861.14 -46430.9)
(-13109.3 224.976 1037.67 -12773.3 -9209.77 -47146)
(-13263.3 212.199 1023.79 -12940 -9574.58 -47821.6)
(-13410 196.45 999.372 -13104.9 -9962.88 -48446.6)
(-13547.3 177.849 960.748 -13266.1 -10383.6 -49009.3)
(-13673.2 156.572 903.834 -13421.9 -10847.3 -49498.7)
(-13785.6 132.812 824.093 -13570.5 -11366.8 -49903.5)
(-13882.9 106.722 716.456 -13710.9 -11956.9 -50213.1)
(-13963.7 78.3457 575.16 -13842.3 -12635.4 -50416.9)
(-14027 47.538 393.461 -13965.1 -13423.8 -50504.4)
(-14072.3 13.8818 163.184 -14081.2 -14349.3 -50464.5)
(-14100.2 -23.3969 -125.929 -14194.9 -15446.7 -50285.6)
(-14112.3 -65.5182 -487.119 -14314.1 -16763.3 -49954.5)
(-14111.9 -114.25 -937.807 -14453.1 -18365 -49456)
(-14105.8 -172.031 -1501.17 -14636.2 -20348.3 -48771.7)
(-14106.5 -242.172 -2208.24 -14907.7 -22860.2 -47877.7)
(-14140.2 -329.409 -3100.79 -15353.3 -26140.2 -46746.3)
(-14283.1 -442.446 -4236 -16187.2 -30610.5 -45393.3)
(-14814.4 -602.958 -5682.46 -18177 -36987.7 -44077.2)
(-16233.1 -851.079 -7345.72 -24231.9 -45353.8 -41317.7)
(-10519.6 -822.353 -7797.12 -33628.3 -49687.6 5456.66)
(-12624.6 245.612 1046.23 -12277.7 -8190.39 -44925.9)
(-12458.6 236.315 1765.2 -12063.1 -8145.66 -43893.3)
(-12625.7 234.883 1815.81 -12223.1 -8497.18 -44678.5)
(-12793.5 231.517 1859.37 -12387.6 -8845.11 -45460.9)
(-12961.3 225.807 1902.34 -12556.5 -9197.09 -46234)
(-13127.3 217.596 1942.86 -12728.4 -9556.98 -46987.5)
(-13289.6 206.903 1978.8 -12902.1 -9929.94 -47710.4)
(-13445.8 193.839 2007.81 -13076 -10322.7 -48391.2)
(-13593.9 178.593 2027.26 -13248.5 -10743.5 -49017.8)
(-13731.6 161.424 2034.36 -13417.6 -11202.8 -49578)
(-13856.9 142.628 2026.11 -13581.8 -11712.8 -50060)
(-13967.6 122.496 1999.34 -13739.5 -12288.2 -50451.6)
(-14062.2 101.258 1950.61 -13889.7 -12946.5 -50741.4)
(-14139.3 79.0269 1876.07 -14032.3 -13709 -50917.6)
(-14197.7 55.7378 1771.26 -14168.6 -14601.9 -50968.6)
(-14237.4 31.0934 1630.72 -14302.1 -15659 -50881.9)
(-14258.5 4.51245 1447.49 -14439.9 -16925.4 -50644.1)
(-14263 -24.9099 1212.57 -14594.9 -18463.6 -50239.7)
(-14254.6 -58.3968 914.156 -14790.4 -20364.6 -49650.7)
(-14240.9 -97.2894 537.112 -15068.7 -22767.8 -48854.9)
(-14239.2 -142.156 63.5611 -15515.3 -25901.7 -47829.2)
(-14307.3 -189.995 -522.343 -16351.3 -30176.5 -46606.1)
(-14685.3 -227.949 -1217.47 -18395.8 -36303.6 -45505)
(-15786.9 -225.969 -1962.66 -24851.9 -44364.9 -43280.4)
(-9304.8 -109.383 -2649.55 -35950.7 -48514.2 1752.19)
(-12625.7 234.883 1815.81 -12223.1 -8497.18 -44678.5)
(-12452.2 220.845 2524.71 -12006.8 -8393.24 -43611.9)
(-12626.2 219.202 2621.28 -12170.4 -8765.42 -44426.7)
(-12800.4 215.873 2711.83 -12338.4 -9130.17 -45238.7)
(-12975.8 210.576 2802.92 -12512.3 -9497.25 -46049.5)
(-13150.7 203.266 2893.08 -12691.1 -9870 -46848.9)
(-13322.9 194.062 2980.74 -12873.5 -10253.1 -47625.6)
(-13490.3 183.171 3064.25 -13058.1 -10652.8 -48367.4)
(-13650.6 170.886 3141.93 -13243.1 -11077.2 -49061.3)
(-13801.5 157.575 3212.14 -13426.8 -11536.5 -49694.1)
(-13940.5 143.651 3273.33 -13607.3 -12043.2 -50252.4)
(-14065.6 129.535 3324.12 -13782.7 -12612.2 -50722.8)
(-14174.8 115.619 3363.25 -13951.8 -13261.3 -51092.1)
(-14266.3 102.218 3389.58 -14113.9 -14012.4 -51347.3)
(-14338.9 89.5348 3401.96 -14269.7 -14892 -51475.4)
(-14391.7 77.6211 3399.04 -14422.2 -15934 -51462.6)
(-14424.6 66.3424 3379.01 -14577.4 -17183.4 -51294.2)
(-14438.5 55.3358 3339.28 -14747.4 -18701.6 -50953.6)
(-14436 43.9603 3275.91 -14953.6 -20577.7 -50420.6)
(-14422.4 31.275 3182.99 -15236.3 -22946.8 -49669.8)
(-14410.4 16.2425 3052.03 -15679 -26030.7 -48671.1)
(-14448 -1.25103 2872.31 -16507.6 -30232.6 -47440.5)
(-14755.1 -17.6697 2635.33 -18578.5 -36275.3 -46261.5)
(-15710.8 -22.6268 2343.78 -25246.1 -44343.6 -43810.4)
(-9041.09 11.3267 1973.19 -37354 -49025.8 1850.5)
(-12626.2 219.202 2621.28 -12170.4 -8765.42 -44426.7)
(-12442.7 201.033 3314.45 -11952 -8596.83 -43320.6)
(-12625 198.638 3459.96 -12120.7 -8989.61 -44172.5)
(-12807.7 194.766 3600.85 -12294.5 -9372.11 -45023.8)
(-12992.8 189.288 3743.01 -12475.8 -9755.24 -45881.8)
(-13178.5 182.312 3885.27 -12663.7 -10141.8 -46736)
(-13362.7 174.081 4026.49 -12857.1 -10536.3 -47574.3)
(-13543.1 164.941 4165.67 -13054.4 -10944.7 -48383.6)
(-13717.3 155.328 4301.98 -13254.1 -11375.4 -49149.5)
(-13882.8 145.754 4434.97 -13454 -11838.6 -49857.2)
(-14037.1 136.776 4564.62 -13652 -12347.5 -50491.5)
(-14177.8 128.967 4691.45 -13846.2 -12917.8 -51037)
(-14302.8 122.889 4816.6 -14034.6 -13568.6 -51478.7)
(-14410 119.064 4941.88 -14216.3 -14322.8 -51801.9)
(-14498.2 117.965 5069.76 -14391.4 -15208.7 -51991.4)
(-14566.5 120.012 5203.38 -14562.3 -16261.7 -52031.9)
(-14614.7 125.574 5346.59 -14734.6 -17528.4 -51906.9)
(-14644 134.964 5503.82 -14919.5 -19072.2 -51597.5)
(-14657.5 148.398 5679.97 -15137.3 -20983.4 -51080.8)
(-14661.2 165.859 5879.84 -15426.8 -23398.4 -50326.4)
(-14669.8 186.703 6106.64 -15868.4 -26538.8 -49295.8)
(-14736.4 208.654 6357.81 -16682.5 -30806.4 -47991.5)
(-15098.5 225.44 6613.46 -18721.5 -36920.8 -46690.3)
(-16193.8 222.505 6800.84 -25382.6 -45049.9 -44131.1)
(-9746.74 174.105 6667.4 -37624.3 -49668.7 1754.52)