/*--------------------------------*- C++ -*----------------------------------*\
| =========                 |                                                 |
| \\      /  F ield         | foam-extend: Open Source CFD                    |
|  \\    /   O peration     | Version:     3.0                                |
|   \\  /    A nd           | Web:         http://www.extend-project.de       |
|    \\/     M anipulation  |                                                 |
\*---------------------------------------------------------------------------*/
FoamFile
{
    version     2.0;
    format      ascii;
    class       volVectorField;
    object      D;
}
// * * * * * * * * * * * * * * * * * * * * * * * * * * * * * * * * * * * * * //

dimensions      [0 1 0 0 0 0 0];

internalField   uniform (0 0 0);

boundaryField
{
    left
    {
        type            blockFixedDisplacementZeroShear;
        value           uniform (0 0 0);
    }
    right
    {
//         type            blockFixedDisplacement;
//         displacementSeries
//         {
//             fileName    "$FOAM_CASE/constant/timeVsDisp";
//             outOfBounds clamp;
//         }
//         value           uniform (0 0 0);

        type            blockSolidTraction;
        tractionSeries
        {
            fileName    "$FOAM_CASE/constant/timeVsTraction";
            outOfBounds clamp;
        }
        pressure        uniform 0;
        value           uniform (0 0 0);
    }
    down
    {
        type            blockFixedDisplacementZeroShear;
        value           uniform (0 0 0);
    }
    up
    {
        type            blockSolidTraction;
        traction        uniform ( 0 0 0 );
        pressure        uniform 0;
        value           uniform (0 0 0);
    }
    hole
    {
        type            blockSolidTraction;
        traction        uniform ( 0 0 0 );
        pressure        uniform 0;
        value           uniform (0 0 0);
    }
    frontAndBack
    {
        type            empty;
    }
}

// ************************************************************************* //
