/*--------------------------------*- C++ -*----------------------------------*\
| =========                 |                                                 |
| \\      /  F ield         | foam-extend: Open Source CFD                    |
|  \\    /   O peration     | Version:     3.2                                |
|   \\  /    A nd           | Web:         http://www.foam-extend.org         |
|    \\/     M anipulation  | For copyright notice see file Copyright         |
\*---------------------------------------------------------------------------*/
FoamFile
{
    version     2.0;
    format      ascii;
    class       polyBoundaryMesh;
    location    "constant/polyMesh";
    object      boundary;
}
// * * * * * * * * * * * * * * * * * * * * * * * * * * * * * * * * * * * * * //

6
(
    left
    {
        type            symmetryPlane;
        nFaces          24;
        startFace       2232;
    }
    bottom
    {
        type            symmetryPlane;
        nFaces          24;
        startFace       2256;
    }
    inside
    {
        type            patch;
        nFaces          48;
        startFace       2280;
    }
    outside
    {
        type            patch;
        nFaces          48;
        startFace       2328;
    }
    back
    {
        type            empty;
        nFaces          1152;
        startFace       2376;
    }
    front
    {
        type            empty;
        nFaces          1152;
        startFace       3528;
    }
)

// ************************************************************************* //
