/*--------------------------------*- C++ -*----------------------------------*\
| solids4foam: solid mechanics and fluid-solid interaction simulations        |
| Version:     v2.0                                                           |
| Web:         https://solids4foam.github.io                                  |
| Disclaimer:  This offering is not approved or endorsed by OpenCFD Limited,  |
|              producer and distributor of the OpenFOAM software via          |
|              www.openfoam.com](https://www.openfoam.com), and owner of the  |
|              OPENFOAM® and OpenCFD® trade marks.                            |
\*---------------------------------------------------------------------------*/
FoamFile
{
    version     2.0;
    format      ascii;
    class       volVectorField;
    location    "0";
    object      D;
}
// * * * * * * * * * * * * * * * * * * * * * * * * * * * * * * * * * * * * * //

dimensions      [0 1 0 0 0 0 0];

internalField   uniform (0 0 0);

boundaryField
{
    cylinder
    {
        type            fixedRotation;
        rotationAngleSeries
        {
            "fileName|file"        "$FOAM_CASE/constant/timeVsAngle";
            outOfBounds     clamp;
        }
        rotationAxis     ( 0 0 1 );
        rotationOrigin   ( 0 0 0 );
        value            uniform   ( 0 0 0 );
    }

    frontAndBackPlanes
    {
        type empty;
    }
}

// ************************************************************************* //
