/*--------------------------------*- C++ -*----------------------------------*\
| =========                 |                                                 |
| \\      /  F ield         | foam-extend: Open Source CFD                    |
|  \\    /   O peration     | Version:     3.0                                |
|   \\  /    A nd           | Web:         http://www.extend-project.de       |
|    \\/     M anipulation  |                                                 |
\*---------------------------------------------------------------------------*/
FoamFile
{
    version     2.0;
    format      ascii;
    class       dictionary;
    object      blockMeshDict;
}
// * * * * * * * * * * * * * * * * * * * * * * * * * * * * * * * * * * * * * //

convertToMeters 1;

vertices
(
    (0 0 0)
    (0.05 0 0)
    (0.05 0.05 0)
    (0 0.05 0)
 
    (0 0 0.1)
    (0.05 0 0.1)
    (0.05 0.05 0.1)
    (0 0.05 0.1)
);

blocks
(
    hex (0 1 2 3 4 5 6 7) rubber (5 5 10) simpleGrading (1 1 1)
);

edges
(
);

patches
(
    patch round
    (
        (0 1 5 4)
        (3 0 4 7)
    )

    patch down
    (
        (0 3 2 1)
    )
    symmetryPlane symm
    (
        (2 3 7 6)
        (1 2 6 5)
    )
    patch up
    (
        (5 6 7 4)
    )
);

mergePatchPairs
(
);

// ************************************************************************* //
