/*--------------------------------*- C++ -*----------------------------------*\
| solids4foam: solid mechanics and fluid-solid interaction simulations        |
| Version:     v2.0                                                           |
| Web:         https://solids4foam.github.io                                  |
| Disclaimer:  This offering is not approved or endorsed by OpenCFD Limited,  |
|              producer and distributor of the OpenFOAM software via          |
|              www.openfoam.com, and owner of the OPENFOAM® and OpenCFD®      |
|              trade marks.                                                   |
\*---------------------------------------------------------------------------*/
FoamFile
{
    version     2.0;
    format      ascii;
    class       dictionary;
    object      mechanicalProperties;
}
// * * * * * * * * * * * * * * * * * * * * * * * * * * * * * * * * * * * * * //

planeStress     no;

mechanical
(
    steel
    {
        type            thermoMechanicalLaw;
        rho             rho [1 -3 0 0 0 0 0] 7750;
        alpha           alpha [0 0 0 -1 0 0 0] 9.7e-06;
        T0              T0 [0 0 0 1 0 0 0] 300;
        mechanicalLaw
        {
            type            linearElastic;
            E               E [1 -1 -2 0 0 0 0] 190e+9;
            nu              nu [0 0 0 0 0 0 0] 0.305;
        }
    }
);

// ************************************************************************* //
