/*--------------------------------*- C++ -*----------------------------------*\
| =========                 |                                                 |
| \\      /  F ield         | foam-extend: Open Source CFD                    |
|  \\    /   O peration     | Version:     3.2                                |
|   \\  /    A nd           | Web:         http://www.foam-extend.org         |
|    \\/     M anipulation  | For copyright notice see file Copyright         |
\*---------------------------------------------------------------------------*/
FoamFile
{
    version     2.0;
    format      ascii;
    class       dictionary;
    location    "constant";
    object      solidProperties;
}
// * * * * * * * * * * * * * * * * * * * * * * * * * * * * * * * * * * * * * //

solidModel     thermalLinearGeometry;
//solidModel     linearGeometryTotalDisplacement;

"linearGeometryTotalDisplacementCoeffs|thermalLinearGeometryCoeffs"
{
    // Maximum number of correctors
    nCorrectors     10000;
    nCorrectorsT    10000;

    // Solution tolerance
    solutionToleranceT 1e-10;

    // Alternative solution toleranc
    alternativeToleranceT 1e-10;

    // Write frequency for the residuals
    infoFrequencyT  100;
}

// ************************************************************************* //
