/*--------------------------------*- C++ -*----------------------------------*\
| solids4foam: solid mechanics and fluid-solid interaction simulations        |
| Version:     v2.0                                                           |
| Web:         https://solids4foam.github.io                                  |
| Disclaimer:  This offering is not approved or endorsed by OpenCFD Limited,  |
|              producer and distributor of the OpenFOAM software via          |
|              www.openfoam.com, and owner of the OPENFOAM® and OpenCFD®      |
|              trade marks.                                                   |
\*---------------------------------------------------------------------------*/
FoamFile
{
    version     2.0;
    format      ascii;
    class       dictionary;
    location    "constant";
    object      solidProperties;
}
// * * * * * * * * * * * * * * * * * * * * * * * * * * * * * * * * * * * * * //

//solidModel     weakThermalLinearGeometry;
solidModel     thermalLinearGeometry;
//solidModel     linearGeometryTotalDisplacement;

"linearGeometryTotalDisplacementCoeffs|thermalLinearGeometryCoeffs"
{
    // Maximum number of correctors
    nCorrectors     10000;

    // Solution tolerance
    solutionTolerance 1e-6;

    // Alternative solution toleranc
    alternativeTolerance 1e-7;

    // Write frequency for the residuals
    infoFrequency  100;
}

// ************************************************************************* //
