/*--------------------------------*- C++ -*----------------------------------*\
| =========                 |                                                 |
| \\      /  F ield         | foam-extend: Open Source CFD                    |
|  \\    /   O peration     | Version:     4.0                                |
|   \\  /    A nd           | Web:         http://www.foam-extend.org         |
|    \\/     M anipulation  |                                                 |
\*---------------------------------------------------------------------------*/
FoamFile
{
    version     2.0;
    format      ascii;
    class       polyBoundaryMesh;
    location    "constant/polyMesh";
    object      boundary;
}
// * * * * * * * * * * * * * * * * * * * * * * * * * * * * * * * * * * * * * //

6
(
    top
    {
        type            patch;
        nFaces          200;
        startFace       3790;
    }
    left
    {
        type            patch;
        nFaces          10;
        startFace       3990;
    }
    right
    {
        type            patch;
        nFaces          10;
        startFace       4000;
    }
    bottom
    {
        type            patch;
        nFaces          200;
        startFace       4010;
    }
    front
    {
        type            empty;
        nFaces          2000;
        startFace       4210;
    }
    back
    {
        type            empty;
        nFaces          2000;
        startFace       6210;
    }
)


// ************************************************************************* //
