/*--------------------------------*- C++ -*----------------------------------*\
| solids4foam: solid mechanics and fluid-solid interaction simulations        |
| Version:     v2.0                                                           |
| Web:         https://solids4foam.github.io                                  |
| Disclaimer:  This offering is not approved or endorsed by OpenCFD Limited,  |
|              producer and distributor of the OpenFOAM software via          |
|              www.openfoam.com, and owner of the OPENFOAM® and OpenCFD®      |
|              trade marks.                                                   |
\*---------------------------------------------------------------------------*/
FoamFile
{
    version     2.0;
    format      binary;
    class       dictionary;
    location    "constant";
    object      mechanicalProperties;
}
// * * * * * * * * * * * * * * * * * * * * * * * * * * * * * * * * * * * * * //

planeStress     no;

mechanical
(
    steel
    {
        type          neoHookeanMisesPhaseFieldDamage;

        outOfBounds   clamp;

        solvePressureEqn yes;
        pressureSmoothingScaleFactor 100;
        debug         no;

        rho           rho [ 1 -3 0 0 0 0 0 ] 2700;
        E             E [ 1 -1 -2 0 0 0 0 ] 68.8e9;
        nu            nu [ 0 0 0 0 0 0 0 ] 0.33;

        "file|fileName" "$FOAM_CASE/constant/plasticStrainVsYieldStress";

        Gc            Gc [1 -1 -2 0 0 0 0] 60e3;
        w0            w0 [1 -1 -2 0 0 0 0] 1e7;
        charLength    charLength [0 1 0 0 0 0 0] 3.226e-4;

        d1            d1 [0 0 0 0 0 0 0] 0.1;
        d2            d2 [0 0 0 0 0 0 0] 3.8;
        d3            d3 [0 0 0 0 0 0 0] -1.8;
        monolithic    true;
        triaxiality   false;
    }
);

// ************************************************************************* //
