/*--------------------------------*- C++ -*----------------------------------*\
| solids4foam: solid mechanics and fluid-solid interaction simulations        |
| Version:     v2.0                                                           |
| Web:         https://solids4foam.github.io                                  |
| Disclaimer:  This offering is not approved or endorsed by OpenCFD Limited,  |
|              producer and distributor of the OpenFOAM software via          |
|              www.openfoam.com, and owner of the OPENFOAM® and OpenCFD®      |
|              trade marks.                                                   |
\*---------------------------------------------------------------------------*/
FoamFile
{
    version     2.0;
    format      ascii;
    class       dictionary;
    location    "system";
    object      controlDict;
}
// * * * * * * * * * * * * * * * * * * * * * * * * * * * * * * * * * * * * * //

application     solids4Foam;

startFrom       startTime;

startTime       0;

stopAt          endTime;

endTime         1;

deltaT          1;

writeControl    timeStep;

writeInterval   1;

cycleWrite      0;

writeFormat     ascii;

writePrecision  6;

writeCompression off;

timeFormat      general;

timePrecision   6;

runTimeModifiable no;

functions
{
    analyticalSolution
    {
        type    squarePlateAnalyticalSolution;

        a    10; // Length of the plate (in x direction)
        b    10; // Width of the plate (in y direction)
        h    0.1; // Plate thickness
        p    1000;  // Applied transverse pressure
        E    2e11;  // Young's modulus
        nu    0.3; // Poisson's ratio

        //boundaryConditions allEdgesSupported;
        boundaryConditions allEdgesClamped;
    }
}

// ************************************************************************* //
