/*--------------------------------*- C++ -*----------------------------------*\
| solids4foam: solid mechanics and fluid-solid interaction simulations        |
| Version:     v2.0                                                           |
| Web:         https://solids4foam.github.io                                  |
| Disclaimer:  This offering is not approved or endorsed by OpenCFD Limited,  |
|              producer and distributor of the OpenFOAM software via          |
|              www.openfoam.com, and owner of the OPENFOAM® and OpenCFD®      |
|              trade marks.                                                   |
\*---------------------------------------------------------------------------*/
FoamFile
{
    version     2.0;
    format      ascii;
    class       dictionary;
    location    "constant/polyMesh";
    object      blockMeshDict;
}
// * * * * * * * * * * * * * * * * * * * * * * * * * * * * * * * * * * * * * //

convertToMeters 0.001;

vertices
(
    // pipe
    (0 48.28 0)
    (48.28 0 0)
    (57.15 0 0)
    (0 57.15 0)

    (0 48.28 1)
    (48.28 0 1)
    (57.15 0 1)
    (0 57.15 1)

    // stiker
    (0 57.15 0)
    (70 57.15 0)
    (70 60 0)
    (0 60 0)

    (0 57.15 1)
    (70 57.15 1)
    (70 60 1)
    (0 60 1)
);

blocks
(
//     hex (0 1 2 3 4 5 6 7) (16 4 1) simpleGrading (1 1 1)
    hex (0 1 2 3 4 5 6 7) (32 8 1) simpleGrading (1 1 1)
    hex (8 9 10 11 12 13 14 15) (20 1 1) simpleGrading (1 1 1)
);

edges
(
    arc 0 1 (34.139115396 34.139115396 0)
    arc 4 5 (34.139115396 34.139115396 1)
    arc 3 2 (40.411152546 40.411152546 0)
    arc 7 6 (40.411152546 40.411152546 1)
);

patches
(

    empty back
    (
     (3 2 1 0)
     (11 10 9 8)
    )
    empty front
    (
     (4 5 6 7)
     (12 13 14 15)
     )

    symmetryPlane left
    (
     (4 7 3 0)
     (8 12 15 11)
     )

    symmetryPlane bottom
    (
     (1 2 6 5)
     )

    patch inside
    (
     (0 1 5 4)
     )

    patch pipeContact
    (
     (7 6 2 3)
     )

    patch anvilLoading
    (
        (10 11 15 14)
        (9 10 14 13)
    )

    patch anvilContact
    (
        (8 9 13 12)
    )
);

mergePatchPairs
(
);

// ************************************************************************* //
