/*--------------------------------*- C++ -*----------------------------------*\
| =========                 |                                                 |
| \\      /  F ield         | foam-extend: Open Source CFD                    |
|  \\    /   O peration     | Version:     4.0                                |
|   \\  /    A nd           | Web:         http://www.foam-extend.org         |
|    \\/     M anipulation  |                                                 |
\*---------------------------------------------------------------------------*/
FoamFile
{
    version     2.0;
    format      ascii;
    class       polyBoundaryMesh;
    location    "constant/polyMesh";
    object      boundary;
}
// * * * * * * * * * * * * * * * * * * * * * * * * * * * * * * * * * * * * * //

8
(
    back
    {
        type            empty;
        nFaces          276;
        startFace       491;
    }
    front
    {
        type            empty;
        nFaces          276;
        startFace       767;
    }
    left
    {
        type            symmetryPlane;
        nFaces          9;
        startFace       1043;
    }
    bottom
    {
        type            symmetryPlane;
        nFaces          8;
        startFace       1052;
    }
    inside
    {
        type            patch;
        nFaces          32;
        startFace       1060;
    }
    pipeContact
    {
        type            patch;
        nFaces          32;
        startFace       1092;
    }
    anvilLoading
    {
        type            patch;
        nFaces          21;
        startFace       1124;
    }
    anvilContact
    {
        type            patch;
        nFaces          20;
        startFace       1145;
    }
)


// ************************************************************************* //
