/*--------------------------------*- C++ -*----------------------------------*\
| solids4foam: solid mechanics and fluid-solid interaction simulations        |
| Version:     v2.0                                                           |
| Web:         https://solids4foam.github.io                                  |
| Disclaimer:  This offering is not approved or endorsed by OpenCFD Limited,  |
|              producer and distributor of the OpenFOAM software via          |
|              www.openfoam.com, and owner of the OPENFOAM® and OpenCFD®      |
|              trade marks.                                                   |
\*---------------------------------------------------------------------------*/
FoamFile
{
    version     2.0;
    format      ascii;
    class       dictionary;
    object      blockMeshDict;
}
// * * * * * * * * * * * * * * * * * * * * * * * * * * * * * * * * * * * * * //

convertToMeters 1;

vertices
(
    (0 0 0)
    (1 0 0)
    (1 2 0)
    (0 2 0)
    (0 0 1)
    (1 0 1)
    (1 2 1)
    (0 2 1)
);

blocks
(
    hex (0 1 2 3 4 5 6 7) (20 20 1) simpleGrading (1 1 1)
);

edges
(
);

patches
(
    patch left
    (
        (0 3 7 4)
    )
    patch right
    (
        (1 2 6 5)
    )
    patch bottom
    (
        (0 1 5 4)
    )
    patch top
    (
        (2 3 7 6)
    )
    empty frontAndBack
    (
		(0 1 2 3)
		(4 5 6 7)
    )
);

mergePatchPairs
(
);

// ************************************************************************* //
