/*--------------------------------*- C++ -*----------------------------------*\
| solids4foam: solid mechanics and fluid-solid interaction simulations        |
| Version:     v2.0                                                           |
| Web:         https://solids4foam.github.io                                  |
| Disclaimer:  This offering is not approved or endorsed by OpenCFD Limited,  |
|              producer and distributor of the OpenFOAM software via          |
|              www.openfoam.com, and owner of the OPENFOAM® and OpenCFD®      |
|              trade marks.                                                   |
\*---------------------------------------------------------------------------*/
FoamFile
{
    version     2.0;
    format      ascii;
    class       volScalarField;
    location    "0";
    object      T;
}
// * * * * * * * * * * * * * * * * * * * * * * * * * * * * * * * * * * * * * //

dimensions      [0 0 0 1 0 0 0];

internalField   uniform 300;

boundaryField
{
    symmx
    {
        type            solidSymmetry;
        patchType       symmetryPlane;
        value           uniform 300;
    }
    symmy
    {
        type            solidSymmetry;
        patchType       symmetryPlane;
        value           uniform 300;
    }
    symmz
    {
        type            solidSymmetry;
        patchType       symmetryPlane;
        value           uniform 300;
    }
    inside
    {
        type            fixedTemperature;
        temperatureSeries
        {
            "fileName|file" "$FOAM_CASE/constant/timeVsTemperature";
            outOfBounds clamp;
        }
        value           uniform 300;
    }
    outside
    {
        type            thermalConvection;
        alpha           uniform 90;
        Tinf            300;
        value           uniform 300;
    }
}

// ************************************************************************* //
