/*--------------------------------*- C++ -*----------------------------------*\
| =========                 |                                                 |
| \\      /  F ield         | OpenFOAM: The Open Source CFD Toolbox           |
|  \\    /   O peration     | Version:  v2012                                 |
|   \\  /    A nd           | Website:  www.openfoam.com                      |
|    \\/     M anipulation  |                                                 |
\*---------------------------------------------------------------------------*/
FoamFile
{
    version     2.0;
    format      binary;
    class       polyBoundaryMesh;
    arch        "LSB;label=32;scalar=64";
    location    "constant/fluid/polyMesh";
    object      boundary;
}
// * * * * * * * * * * * * * * * * * * * * * * * * * * * * * * * * * * * * * //

5
(
    outlet
    {
        type            patch;
        nFaces          200;
        startFace       45800;
    }
    inlet
    {
        type            patch;
        nFaces          200;
        startFace       46000;
    }
    wall
    {
        type            wall;
        inGroups        1(wall);
        nFaces          1600;
        startFace       46200;
    }
    symmetry-x
    {
        type            symmetry;
        inGroups        1(symmetry);
        nFaces          1200;
        startFace       47800;
    }
    symmetry-y
    {
        type            symmetry;
        inGroups        1(symmetry);
        nFaces          1200;
        startFace       49000;
    }
)

// ************************************************************************* //
