/*--------------------------------*- C++ -*----------------------------------*\
  =========                 |
  \\      /  F ield         | OpenFOAM: The Open Source CFD Toolbox
   \\    /   O peration     | Website:  https://openfoam.org
    \\  /    A nd           | Version:  7
     \\/     M anipulation  |
\*---------------------------------------------------------------------------*/
FoamFile
{
    version     2.0;
    format      ascii;
    class       polyBoundaryMesh;
    location    "constant/fluid/polyMesh";
    object      boundary;
}
// * * * * * * * * * * * * * * * * * * * * * * * * * * * * * * * * * * * * * //

5
(
    outlet
    {
        type            patch;
        nFaces          200;
        startFace       45800;
    }
    inlet
    {
        type            patch;
        nFaces          200;
        startFace       46000;
    }
    wall
    {
        type            wall;
        inGroups        List<word> 1(wall);
        nFaces          1600;
        startFace       46200;
    }
    symmetry-x
    {
        type            symmetry;
        inGroups        List<word> 1(symmetry);
        nFaces          1200;
        startFace       47800;
    }
    symmetry-y
    {
        type            symmetry;
        inGroups        List<word> 1(symmetry);
        nFaces          1200;
        startFace       49000;
    }
)

// ************************************************************************* //
