/*--------------------------------*- C++ -*----------------------------------*\
| =========                 |                                                 |
| \\      /  F ield         | foam-extend: Open Source CFD                    |
|  \\    /   O peration     | Version:     3.0                                |
|   \\  /    A nd           | Web:         http://www.extend-project.de       |
|    \\/     M anipulation  |                                                 |
\*---------------------------------------------------------------------------*/
FoamFile
{
    version     2.0;
    format      ascii;
    class       volVectorField;
    object      D;
}
// * * * * * * * * * * * * * * * * * * * * * * * * * * * * * * * * * * * * * //

dimensions      [0 1 0 0 0 0 0];

internalField   uniform (0 0 0);

boundaryField
{
    down
    {
        type                     simpleCohesiveZone;
        simpleCohesiveZoneLaw    Dugdale;
        DugdaleCoeffs
        {
            GIc                  GIc [ 1 0 -2 0 0 0 0 ] 10;
            sigmaMax             sigmaMax [ 1 -1 -2 0 0 0 0 ] 1e6;
        }
        relaxationFactor         0.1;
        //explicitSeparationDistance no;
        //breakOnlyOneFace       yes;
        patchType                symmetryPlane;
        value                    uniform (0 0 0);
    }
    left
    {
        type            fixedDisplacement;
        displacementSeries
        {
            "fileName|file"    "$FOAM_CASE/constant/timeVsDisp";
            outOfBounds clamp;
        }
        pressure        uniform 0;
        value           uniform (0 0 0);
    }
    right
    {
        type            fixedDisplacement;
        value           uniform (0 0 0);
    }
    up
    {
        type            solidTraction;
        traction        uniform ( 0 0 0 );
        pressure        uniform 0;
        value           uniform (0 0 0);
    }
    hole
    {
        type            solidTraction;
        traction        uniform ( 0 0 0 );
        pressure        uniform 0;
        value           uniform (0 0 0);
    }
    frontAndBack
    {
        type            empty;
    }
}

// ************************************************************************* //
