/*--------------------------------*- C++ -*----------------------------------*\
| =========                 |                                                 |
| \\      /  F ield         | OpenFOAM Extend Project: Open Source CFD        |
|  \\    /   O peration     | Version:  1.6-ext                               |
|   \\  /    A nd           | Web:      www.extend-project.de                 |
|    \\/     M anipulation  |                                                 |
\*---------------------------------------------------------------------------*/
FoamFile
{
    version     2.0;
    format      ascii;
    class       dictionary;
    location    "constant/polyMesh";
    object      blockMeshDict;
}
// * * * * * * * * * * * * * * * * * * * * * * * * * * * * * * * * * * * * * //

// Model Description
// Axisymmetric cylinder mesh with compression die

// Setup m4 stuff



// define geometry in mm

 // length of cylinder section
 // cylinder inner radius
 // cylinder outer radius
 // angle of wedge in degrees

// calculated quantities




// define mesh density
 // number of cells in radial direction

// start of blockMeshDict

convertToMeters 0.001;

vertices
(
    //- dimension in mm
    (0 9.99961923064171 -0.0872653549837451)
    (1 9.99961923064171 -0.0872653549837451)
    (1 19.9992384612834 -0.17453070996749)
    (0 19.9992384612834 -0.17453070996749)

    (0 9.99961923064171 0.0872653549837451)
    (1 9.99961923064171 0.0872653549837451)
    (1 19.9992384612834 0.17453070996749)
    (0 19.9992384612834 0.17453070996749)
);

blocks
(
    hex (0 1 2 3 4 5 6 7) billet (1 10 1) simpleGrading (1 1 1)
);

edges
(
);

patches
(
    symmetryPlane symmPlane
    (
        (0 4 7 3)
        (1 2 6 5)
    )

    patch inner
    (
        (0 1 5 4)
    )

    patch outer
    (
        (2 3 7 6)
    )

    wedge back
    (
        (3 2 1 0)
    )

    wedge front
    (
        (4 5 6 7)
    )
);

mergePatchPairs
(
);

// ************************************************************************* //
