/*--------------------------------*- C++ -*----------------------------------*\
| solids4foam: solid mechanics and fluid-solid interaction simulations        |
| Version:     v2.0                                                           |
| Web:         https://solids4foam.github.io                                  |
| Disclaimer:  This offering is not approved or endorsed by OpenCFD Limited,  |
|              producer and distributor of the OpenFOAM software via          |
|              www.openfoam.com](https://www.openfoam.com), and owner of the  |
|              OPENFOAM® and OpenCFD® trade marks.                            |
\*---------------------------------------------------------------------------*/
FoamFile
{
    version     2.0;
    format      ascii;
    class       volVectorField;
    location    "0";
    object      D;
}
// * * * * * * * * * * * * * * * * * * * * * * * * * * * * * * * * * * * * * //

dimensions      [0 1 0 0 0 0 0];

internalField   uniform (0 0 0);

boundaryField
{
    top
    {
        type           fixedDisplacementZeroShear;
        displacementSeries
        {
            "fileName|file"       "$FOAM_CASE/constant/timeVsDisp";
            outOfBounds    clamp;
        }
        value          uniform ( 0 0 0 );
    }

    right
    {
        type            solidTraction;
        traction        uniform ( 0 0 0 );
        pressure        uniform 0;
        value           uniform (0 0 0);
    }

    bottom
    {
        type            solidSymmetry;
        patchType       symmetryPlane;
        value           uniform (0 0 0);
    }

    left
    {
        type            solidSymmetry;
        patchType       symmetryPlane;
        value           uniform (0 0 0);
    }

    back
    {
        type            solidSymmetry;
        patchType       symmetryPlane;
        value           uniform (0 0 0);
    }

    front
    {
        type            solidTraction;
        traction        uniform ( 0 0 0 );
        pressure        uniform 0;
        value           uniform (0 0 0);
    }
}

// ************************************************************************* //
