/*--------------------------------*- C++ -*----------------------------------*\
| =========                 |                                                 |
| \\      /  F ield         | foam-extend: Open Source CFD                    |
|  \\    /   O peration     | Version:     3.2                                |
|   \\  /    A nd           | Web:         http://www.foam-extend.org         |
|    \\/     M anipulation  | For copyright notice see file Copyright         |
\*---------------------------------------------------------------------------*/
FoamFile
{
    version     2.0;
    format      ascii;
    class       dictionary;
    location    "constant";
    object      solidProperties;
}
// * * * * * * * * * * * * * * * * * * * * * * * * * * * * * * * * * * * * * //

// linearGeometry: assumes small strains and rotations
solidModel     explicitLinearGeometryTotalDisplacement;

explicitLinearGeometryTotalDisplacementCoeffs
{
    // Linear bulk viscosity coefficient to kill high frequency oscillations
    // Defaults to 0.06
    linearBulkViscosityCoeff 0.06;

    // Scale factor for JST smoothing term to quell checkerboarding
    // Note: the solver can explode if this is too small or too large :)
    JSTScaleFactor   0.1;

    // Numerical viscosity for 1st temporal derivative term
    numericalViscosity    eta [ 0 0 -1 0 0 0 0 ] 0;
}


// ************************************************************************* //
