/*--------------------------------*- C++ -*----------------------------------*\
| solids4foam: solid mechanics and fluid-solid interaction simulations        |
| Version:     v2.0                                                           |
| Web:         https://solids4foam.github.io                                  |
| Disclaimer:  This offering is not approved or endorsed by OpenCFD Limited,  |
|              producer and distributor of the OpenFOAM software via          |
|              www.openfoam.com](https://www.openfoam.com), and owner of the  |
|              OPENFOAM® and OpenCFD® trade marks.                            |
\*---------------------------------------------------------------------------*/
FoamFile
{
    version     2.0;
    format      ascii;
    class       dictionary;
    object      blockMeshDict;
}
// * * * * * * * * * * * * * * * * * * * * * * * * * * * * * * * * * * * * * //

convertToMeters 1;

vertices
(
    (7 		0 0) 		// 0
    (18.625 0 0) 		// 1
    (0 		18.625 0) 	// 2
    (0		7 	   0) 	// 3

    (7 		0 1) 		// 0
    (18.625 0 1) 		// 1
    (0 		18.625 1) 	// 2
    (0		7 	   1) 	// 3
);

blocks
(
    hex (0 1 2 3 4 5 6 7) (40 40 1) simpleGrading (1 1 1)
);

edges
(
	arc 1 2 (13.17 13.17 0)
	arc 3 0 ( 4.95  4.95 0)

	arc 5 6 (13.17 13.17 1)
	arc 4 7 ( 4.95  4.95 1)
);

patches
(
    empty bottom
    (
        (3 2 1 0)
    )
    empty top
    (
        (4 5 6 7)
    )
    patch inner-wall
    (
        (3 0 4 7)
    )
    patch outer-wall
    (
        (6 5 1 2)
    )
    symmetryPlane symmetry-x
    (
        (7 6 2 3)
    )
    symmetryPlane symmetry-y
    (
        (0 1 5 4)
    )
);

mergePatchPairs
(
);

// ************************************************************************* //
