/*--------------------------------*- C++ -*----------------------------------*\
| =========                 |                                                 |
| \\      /  F ield         | foam-extend: Open Source CFD                    |
|  \\    /   O peration     | Version:     4.0                                |
|   \\  /    A nd           | Web:         http://www.foam-extend.org         |
|    \\/     M anipulation  |                                                 |
\*---------------------------------------------------------------------------*/
FoamFile
{
    version     2.0;
    format      ascii;
    class       polyBoundaryMesh;
    location    "constant/polyMesh";
    object      boundary;
}
// * * * * * * * * * * * * * * * * * * * * * * * * * * * * * * * * * * * * * //

6
(
    bottom
    {
        type            empty;
        nFaces          1600;
        startFace       3120;
    }
    top
    {
        type            empty;
        nFaces          1600;
        startFace       4720;
    }
    inner-wall
    {
        type            patch;
        nFaces          40;
        startFace       6320;
    }
    outer-wall
    {
        type            patch;
        nFaces          40;
        startFace       6360;
    }
    symmetry-x
    {
        type            symmetryPlane;
        nFaces          40;
        startFace       6400;
    }
    symmetry-y
    {
        type            symmetryPlane;
        nFaces          40;
        startFace       6440;
    }
)


// ************************************************************************* //
