/*--------------------------------*- C++ -*----------------------------------*\
| =========                 |                                                 |
| \\      /  F ield         | foam-extend: Open Source CFD                    |
|  \\    /   O peration     | Version:     3.0                                |
|   \\  /    A nd           | Web:         http://www.extend-project.de       |
|    \\/     M anipulation  |                                                 |
\*---------------------------------------------------------------------------*/
FoamFile
{
    version     2.0;
    format      ascii;
    class       dictionary;
    object      mechanicalProperties;
}
// * * * * * * * * * * * * * * * * * * * * * * * * * * * * * * * * * * * * * //

planeStress     no;

mechanical
(
    someTypeOfRubber
    {
        // type            neoHookeanElastic;
        // rho             rho [1 -3 0 0 0 0 0] 7800;
        // mu              mu [1 -1 -2 0 0 0 0] 400e+6;
        // K               K [1 -1 -2 0 0 0 0] 10e+9;

        // type            StVenantKirchhoffElastic;
        // rho             rho [1 -3 0 0 0 0 0] 7800;
        // mu              mu [1 -1 -2 0 0 0 0] 400e+6;
        // K               K [1 -1 -2 0 0 0 0] 10e+9;

        type            MooneyRivlinElastic;
        rho             rho [1 -3 0 0 0 0 0] 7800;
        mu1             mu1 [1 -1 -2 0 0 0 0] 300e+6;
        mu2             mu2 [1 -1 -2 0 0 0 0] 100e+6;
        K               K [1 -1 -2 0 0 0 0]   10e+9;
    }
);

// ************************************************************************* //
