/*--------------------------------*- C++ -*----------------------------------*\
| solids4foam: solid mechanics and fluid-solid interaction simulations        |
| Version:     v2.0                                                           |
| Web:         https://solids4foam.github.io                                  |
| Disclaimer:  This offering is not approved or endorsed by OpenCFD Limited,  |
|              producer and distributor of the OpenFOAM software via          |
|              www.openfoam.com, and owner of the OPENFOAM® and OpenCFD®      |
|              trade marks.                                                   |
\*---------------------------------------------------------------------------*/
FoamFile
{
    version     2.0;
    format      ascii;
    class       dictionary;
    object      mechanicalProperties;
}
// * * * * * * * * * * * * * * * * * * * * * * * * * * * * * * * * * * * * * //

planeStress     no;

mechanical
(
    someTypeOfRubber
    {
        type            neoHookeanElastic;
        rho             rho [1 -3 0 0 0 0 0] 7800;
        mu              mu [1 -1 -2 0 0 0 0] 400e+6;
        K               K [1 -1 -2 0 0 0 0] 10e+9;

        // type            StVenantKirchhoffElastic;
        // rho             rho [1 -3 0 0 0 0 0] 7800;
        // mu              mu [1 -1 -2 0 0 0 0] 400e+6;
        // K               K [1 -1 -2 0 0 0 0] 10e+9;
    }
);

// ************************************************************************* //
