/*--------------------------------*- C++ -*----------------------------------*\
| =========                 |                                                 |
| \\      /  F ield         | foam-extend: Open Source CFD                    |
|  \\    /   O peration     | Version:     3.0                                |
|   \\  /    A nd           | Web:         http://www.extend-project.de       |
|    \\/     M anipulation  |                                                 |
\*---------------------------------------------------------------------------*/
FoamFile
{
    version     2.0;
    format      ascii;
    class       dictionary;
    object      controlDict;
}
// * * * * * * * * * * * * * * * * * * * * * * * * * * * * * * * * * * * * * //

// libs
// (
//     "-L $FOAM_USER_LIBBIN}"
//     //"libgfortran.so"
//     "libgfortran.dylib"
//     "exampleAbaqusUMAT.o"
//     "libexampleAbaqusUMAT.dylib"
// );

application     solids4Foam;

startFrom       startTime;

startTime       0;

stopAt          endTime;

endTime         1;

deltaT          1;

writeControl    timeStep;

writeInterval   1;

cycleWrite      0;

writeFormat     ascii;

writePrecision  6;

writeCompression uncompressed;

timeFormat      general;

timePrecision   6;

runTimeModifiable no;

functions
{
    forceDisp1
    {
        type          solidForcesDisplacements;
        historyPatch  right;
    }

    pointDisp
    {
        type          solidPointDisplacement;
        point         (0 0.5 0);
    }
}

// ************************************************************************* //
