/*--------------------------------*- C++ -*----------------------------------*\
| solids4foam: solid mechanics and fluid-solid interaction simulations        |
| Version:     v2.0                                                           |
| Web:         https://solids4foam.github.io                                  |
| Disclaimer:  This offering is not approved or endorsed by OpenCFD Limited,  |
|              producer and distributor of the OpenFOAM software via          |
|              www.openfoam.com, and owner of the OPENFOAM® and OpenCFD®      |
|              trade marks.                                                   |
\*---------------------------------------------------------------------------*/
FoamFile
{
    version     2.0;
    format      ascii;
    class       pointVectorField;
    location    "0";
    object      pointDD;
}
// * * * * * * * * * * * * * * * * * * * * * * * * * * * * * * * * * * * * * //

dimensions      [0 1 0 0 0 0 0];

internalField   uniform (0 0 0);

boundaryField
{
    top
    {
        type           componentMixed;
        refValue       uniform ( 0 0 0 );
        refGradient    uniform ( 0 0 0 );
        valueFraction  uniform ( 0 1 0 );
        value          uniform ( 0 0 0 );
    }

    bottom
    {
        type           fixedValue;
        value          uniform ( 0 0 0 );
    }

    right
    {
        type           componentMixed;
        refValue       uniform ( 0 0 0 );
        refGradient    uniform ( 0 0 0 );
        valueFraction  uniform ( 0 1 0 );
        value          uniform ( 0 0 0 );
    }

    left
    {
        type           componentMixed;
        refValue       uniform ( 0 0 0 );
        refGradient    uniform ( 0 0 0 );
        valueFraction  uniform ( 0 1 0 );
        value          uniform ( 0 0 0 );
    }

    back
    {
        type            symmetryPlane;
    }

    front
    {
        type            symmetryPlane;
    }
}

// ************************************************************************* //
