/*--------------------------------*- C++ -*----------------------------------*\
| solids4foam: solid mechanics and fluid-solid interaction simulations        |
| Version:     v2.0                                                           |
| Web:         https://solids4foam.github.io                                  |
| Disclaimer:  This offering is not approved or endorsed by OpenCFD Limited,  |
|              producer and distributor of the OpenFOAM software via          |
|              www.openfoam.com](https://www.openfoam.com), and owner of the  |
|              OPENFOAM® and OpenCFD® trade marks.                            |
\*---------------------------------------------------------------------------*/
FoamFile
{
    version     2.0;
    format      ascii;
    class       volVectorField;
    object      D;
}
// * * * * * * * * * * * * * * * * * * * * * * * * * * * * * * * * * * * * * //

dimensions      [0 1 0 0 0 0 0];

internalField   uniform (0 0 0);

boundaryField
{
    crack
    {
        type                       solidCohesive;
        relaxationFactor           0.01;
        cohesiveZoneModel
        {
            //type        modeI;
            //type        fixedMixedMode;
            //sigmaMax    sigmaMax [ 1 -1 -2 0 0 0 0 ] 10e6;
            //GIc         GIc [ 1 0 -2 0 0 0 0 ] 50;

            type        variableMixedMode;
            sigmaMax    sigmaMax [ 1 -1 -2 0 0 0 0 ] 10e6;
            tauMax      tauMax [ 1 -1 -2 0 0 0 0 ] 10e6;
            GIc         GIc [ 1 0 -2 0 0 0 0 ] 50;
            GIIc        GIIc [ 1 0 -2 0 0 0 0 ] 50;
        }
        //contact                    no;
        //penaltyScale               1;
        //frictionCoeff              0.1;
        //explicitSeparationDistance no;
        value                      uniform ( 0 0 0 );
    }
    topLoading
    {
        type            fixedDisplacement;
        displacementSeries
        {
            "fileName|file"    "$FOAM_CASE/constant/timeVsTopDisp";
            outOfBounds clamp;
        }
        value           uniform (0 0 0);
    }
    bottomLoading
    {
        type            fixedDisplacement;
        displacementSeries
        {
            "fileName|file"    "$FOAM_CASE/constant/timeVsBottomDisp";
            outOfBounds clamp;
        }
        value           uniform (0 0 0);
    }
    tractionFree
    {
        type            solidTraction;
        traction        uniform ( 0 0 0 );
        pressure        uniform 0;
        value           uniform (0 0 0);
    }
    back
    {
        type            empty;
    }
    front
    {
        type            empty;
    }
}

// ************************************************************************* //
