/*--------------------------------*- C++ -*----------------------------------*\
| =========                 |                                                 |
| \\      /  F ield         | foam-extend: Open Source CFD                    |
|  \\    /   O peration     | Version:     4.0                                |
|   \\  /    A nd           | Web:         http://www.foam-extend.org         |
|    \\/     M anipulation  |                                                 |
\*---------------------------------------------------------------------------*/
FoamFile
{
    version     2.0;
    format      ascii;
    class       polyBoundaryMesh;
    location    "constant/polyMesh";
    object      boundary;
}
// * * * * * * * * * * * * * * * * * * * * * * * * * * * * * * * * * * * * * //

6
(
    bottom
    {
        type            empty;
        nFaces          900;
        startFace       1740;
    }
    top
    {
        type            empty;
        nFaces          900;
        startFace       2640;
    }
    inner-wall
    {
        type            patch;
        nFaces          30;
        startFace       3540;
    }
    outer-wall
    {
        type            patch;
        nFaces          30;
        startFace       3570;
    }
    symmetry-x
    {
        type            symmetryPlane;
        nFaces          30;
        startFace       3600;
    }
    symmetry-y
    {
        type            symmetryPlane;
        nFaces          30;
        startFace       3630;
    }
)


// ************************************************************************* //
