/*--------------------------------*- C++ -*----------------------------------*\
| solids4foam: solid mechanics and fluid-solid interaction simulations        |
| Version:     v2.0                                                           |
| Web:         https://solids4foam.github.io                                  |
| Disclaimer:  This offering is not approved or endorsed by OpenCFD Limited,  |
|              producer and distributor of the OpenFOAM software via          |
|              www.openfoam.com, and owner of the OPENFOAM® and OpenCFD®      |
|              trade marks.                                                   |
\*---------------------------------------------------------------------------*/
FoamFile
{
    version     2.0;
    format      ascii;
    class       dictionary;
    location    "system";
    object      fvSchemes;
}
// * * * * * * * * * * * * * * * * * * * * * * * * * * * * * * * * * * * * * //

d2dt2Schemes
{
    default                steadyState; //Euler;
}

ddtSchemes
{
    default                steadyState; //Euler;
}

gradSchemes
{
    default                extendedLeastSquares 0;
}

divSchemes
{
    default                none;
    div(sigma)             Gauss linear;
    div(threeKalphaDeltaT) Gauss linear;
}

laplacianSchemes
{
    default                none;
    laplacian(DD,D)        Gauss linear corrected;
    laplacian(k,T)         Gauss linear corrected;
}

snGradSchemes
{
    default                none;
}

interpolationSchemes
{
    default                linear;
}

// ************************************************************************* //
