/*--------------------------------*- C++ -*----------------------------------*\
| =========                 |                                                 |
| \\      /  F ield         | foam-extend: Open Source CFD                    |
|  \\    /   O peration     | Version:     4.0                                |
|   \\  /    A nd           | Web:         http://www.foam-extend.org         |
|    \\/     M anipulation  |                                                 |
\*---------------------------------------------------------------------------*/
FoamFile
{
    version     2.0;
    format      ascii;
    class       dictionary;
    location    "system";
    object      fvSchemes;
}
// * * * * * * * * * * * * * * * * * * * * * * * * * * * * * * * * * * * * * //

d2dt2Schemes
{
    default                steadyState; //Euler;
}

ddtSchemes
{
    default                steadyState; //Euler;
}

gradSchemes
{
    default                extendedLeastSquares 0;
}

divSchemes
{
    default                none;
    div(sigma)             Gauss linear;
    div(threeKalphaDeltaT) Gauss linear;
}

laplacianSchemes
{
    default                none;
    laplacian(DD,D)        Gauss linear corrected;
    laplacian(k,T)         Gauss linear corrected;
}

snGradSchemes
{
    default                none;
}

interpolationSchemes
{
    default                linear;
}


// ************************************************************************* //
