/*--------------------------------*- C++ -*----------------------------------*\
| =========                 |                                                 |
| \\      /  F ield         | foam-extend: Open Source CFD                    |
|  \\    /   O peration     | Version:     4.0                                |
|   \\  /    A nd           | Web:         http://www.foam-extend.org         |
|    \\/     M anipulation  |                                                 |
\*---------------------------------------------------------------------------*/
FoamFile
{
    version     2.0;
    format      ascii;
    class       dictionary;
    location    "system";
    object      fvSolution;
}
// * * * * * * * * * * * * * * * * * * * * * * * * * * * * * * * * * * * * * //

solvers
{
    "D|T"
    {
        solver          PCG;
        preconditioner  DIC;
        tolerance       1e-10;
        relTol          0.1;
        minIter         0;
        maxIter         50;
    }
}

relaxationFactors
{
    equations
    {
        T    0.9;
    }
    fields
    {
        //T    0.9;
    }
}


// ************************************************************************* //
