/*--------------------------------*- C++ -*----------------------------------*\
| =========                 |                                                 |
| \\      /  F ield         | OpenFOAM Extend Project: Open Source CFD        |
|  \\    /   O peration     | Version:  1.6-ext                               |
|   \\  /    A nd           | Web:      www.extend-project.de                 |
|    \\/     M anipulation  |                                                 |
\*---------------------------------------------------------------------------*/
FoamFile
{
    version     2.0;
    format      ascii;
    class       dictionary;
    location    "system";
    object      fvSolution;
}
// * * * * * * * * * * * * * * * * * * * * * * * * * * * * * * * * * * * * * //

solvers
{
    // Coupled solver
    "w|M"
    {
        tolerance       1e-12;
        relTol          0.1;
        maxIter         50;

        solver          PCG;
        preconditioner  FDIC;
    }
}

relaxationFactors
{
    equations
    {
    }

    fields
    {
        //M        0.1;
        //w        0.7;
    }
}

// ************************************************************************* //
