/*--------------------------------*- C++ -*----------------------------------*\
| solids4foam: solid mechanics and fluid-solid interaction simulations        |
| Version:     v2.0                                                           |
| Web:         https://solids4foam.github.io                                  |
| Disclaimer:  This offering is not approved or endorsed by OpenCFD Limited,  |
|              producer and distributor of the OpenFOAM software via          |
|              www.openfoam.com, and owner of the OPENFOAM® and OpenCFD®      |
|              trade marks.                                                   |
\*---------------------------------------------------------------------------*/
FoamFile
{
    version     2.0;
    format      ascii;
    class       volVectorField;
    object      DD;
}
// * * * * * * * * * * * * * * * * * * * * * * * * * * * * * * * * * * * * * //

dimensions      [0 1 0 0 0 0 0];

internalField   uniform (0 0 0);

boundaryField
{
    symmetry-x
    {
        type            solidSymmetry;
        patchType       symmetryPlane;
        value           uniform (0 0 0);
    }
    symmetry-y
    {
        type            solidSymmetry;
        patchType       symmetryPlane;
        value           uniform (0 0 0);
    }
    outlet
    {
        type            fixedDisplacement;
        value           uniform (0 0 0);
    }
    inlet
    {
        type            fixedDisplacement;
        value           uniform (0 0 0);
    }
    inner-wall
    {
        type            solidTraction;
        traction        uniform ( 0 0 0 );
        pressure        uniform 0;
        value           uniform (0 0 0);
    }
    outer-wall
    {
        type            solidTraction;
        traction        uniform ( 0 0 0 );
        pressure        uniform 0;
        value           uniform (0 0 0);
    }
}

// ************************************************************************* //
