/*--------------------------------*- C++ -*----------------------------------*\
| =========                 |                                                 |
| \\      /  F ield         | foam-extend: Open Source CFD                    |
|  \\    /   O peration     | Version:     3.0                                |
|   \\  /    A nd           | Web:         http://www.extend-project.de       |
|    \\/     M anipulation  |                                                 |
\*---------------------------------------------------------------------------*/
FoamFile
{
    version     2.0;
    format      ascii;
    class       volScalarField;
    object      k;
}
// * * * * * * * * * * * * * * * * * * * * * * * * * * * * * * * * * * * * * //

dimensions      [0 2 -2 0 0 0 0];

internalField   uniform 0;

boundaryField
{
    plate
    {
        type    zeroGradient;
    }
    outlet
    {
        type    zeroGradient;
    }
    inlet
    {
        type    fixedValue;
        value   uniform 0.001;
    }
    cylinder
    {
        type    zeroGradient;
    }
    bottom
    {
        type    zeroGradient;
    }
    top
    {
        type    zeroGradient;
    }
    frontAndBackPlanes
    {
        type    empty;
    }
}


// ************************************************************************* //
