/*--------------------------------*- C++ -*----------------------------------*\
| solids4foam: solid mechanics and fluid-solid interaction simulations        |
| Version:     v2.0                                                           |
| Web:         https://solids4foam.github.io                                  |
| Disclaimer:  This offering is not approved or endorsed by OpenCFD Limited,  |
|              producer and distributor of the OpenFOAM software via          |
|              www.openfoam.com](https://www.openfoam.com), and owner of the  |
|              OPENFOAM® and OpenCFD® trade marks.                            |
\*---------------------------------------------------------------------------*/
FoamFile
{
    version     2.0;
    format      ascii;
    class       volVectorField;
    object      D;
}
// * * * * * * * * * * * * * * * * * * * * * * * * * * * * * * * * * * * * * //

dimensions      [0 1 0 0 0 0 0];

internalField   uniform (0 0 0);

boundaryField
{
    down
    {
        type            solidSymmetry;
        patchType       symmetryPlane;
        value           uniform (0 0 0);
    }
    right
    {
        type            solidTraction;
        traction        uniform (0 0 0);
        pressure        uniform 0;
        value           uniform (0 0 0);
    }
    up
    {
        type                rigidCylinderContact;
        cylinderRadius      1.0;
        cylinderCentre
        {
            "fileName|file"        "$FOAM_CASE/constant/timeVsCylinderCentre";
            outOfBounds     clamp;
        }
        penaltyStiffness    1e9;
        relaxFactor         0.1;
        value               uniform (0 0 0);
    }
    left
    {
        type            fixedDisplacement;
        value           uniform (0 0 0);
    }
    cylinder
    {
        type            fixedDisplacement;
        value           uniform (0 0 0);
    }
    defaultFaces
    {
        type            empty;
    }
}

// ************************************************************************* //
