/*--------------------------------*- C++ -*----------------------------------*\
| =========                 |                                                 |
| \\      /  F ield         | foam-extend: Open Source CFD                    |
|  \\    /   O peration     | Version:     3.2                                |
|   \\  /    A nd           | Web:         http://www.foam-extend.org         |
|    \\/     M anipulation  |                                                 |
\*---------------------------------------------------------------------------*/
FoamFile
{
    version     2.0;
    format      ascii;
    class       volVectorField;
    object      D;
}
// * * * * * * * * * * * * * * * * * * * * * * * * * * * * * * * * * * * * * //

dimensions      [0 1 0 0 0 0 0];

internalField   uniform (0 0 0);

boundaryField
{
    down
    {
        type            solidSymmetry;
        patchType       symmetryPlane;
        value           uniform (0 0 0);
    }
    right
    {
        type            solidTraction;
        traction        uniform (0 0 0);
        pressure        uniform 0;
        value           uniform (0 0 0);
    }
    up
    {
        type                rigidCylinderContact;
        cylinderRadius      1.0;
        cylinderCentre
        {
            fileName        "$FOAM_CASE/constant/timeVsCylinderCentre";
            outOfBounds     clamp;
        }
        penaltyStiffness    1e9;
        relaxFactor         0.1;
        value               uniform (0 0 0);
    }
    left
    {
        type            fixedDisplacement;
        value           uniform (0 0 0);
    }
    cylinder
    {
        type            fixedDisplacement;
        value           uniform (0 0 0);
    }
    defaultFaces
    {
        type            empty;
    }
}

// ************************************************************************* //
