/*--------------------------------*- C++ -*----------------------------------*\
| =========                 |                                                 |
| \\      /  F ield         | OpenFOAM Extend Project: Open source CFD        |
|  \\    /   O peration     | Version:  1.6-ext                               |
|   \\  /    A nd           | Web:      www.extend-project.de                 |
|    \\/     M anipulation  |                                                 |
\*---------------------------------------------------------------------------*/
FoamFile
{
    version     2.0;
    format      ascii;
    class       dictionary;
    location    system;
    object      sampleDict;
}

// * * * * * * * * * * * * * * * * * * * * * * * * * * * * * * * * * * * * //

setFormat raw;
surfaceFormat raw;

interpolationScheme cellPoint;

// Fields to sample.
fields
(
    D
    sigmaRR
    sigmaThetaTheta
);

sets
(
    line
    {
        axis        xyz;
        type        midPoint;
        start       ( 4  4 0.5);
        end         (14 14 0.5);
    }
);

surfaces
(
);


// *********************************************************************** //
