/*--------------------------------*- C++ -*----------------------------------*\
| =========                 |                                                 |
| \\      /  F ield         | OpenFOAM: The Open Source CFD Toolbox           |
|  \\    /   O peration     | Version:  5                                     |
|   \\  /    A nd           | Web:      www.OpenFOAM.org                      |
|    \\/     M anipulation  |                                                 |
\*---------------------------------------------------------------------------*/
FoamFile
{
    version     2.0;
    format      ascii;
    class       dictionary;
    location    "system";
    object      preciceDict;
}
// * * * * * * * * * * * * * * * * * * * * * * * * * * * * * * * * * * * * * //

preciceConfig "../precice-config.xml";

participant Solid;

modules (FSI);

interfaces
{
    Interface1
    {
        mesh              Solid-Mesh;
        patches           (interface);
        locations         faceCenters;

        readData
        (
            Force
        );

        writeData
        (
            Displacement
        );
    };
};

FSI
{
    // The next 3 lines are not be used by a adapter, which has been hacked to
    // work with solids in solids4foam
    solverType incompressible;
    rho rho [1 -3 0 0 0 0 0] 1;
    nu              nu [ 0 2 -1 0 0 0 0 ] 1e-03;

    // Name of displacement fields
    namePointDisplacement pointD;
    nameCellDisplacement D;

    // Name of the force field on the solid
    forceFieldName force;

    // solids4foam solids should not move the mesh 
    moveMesh no;
}
