/*--------------------------------*- C++ -*----------------------------------*\
| solids4foam: solid mechanics and fluid-solid interaction simulations        |
| Version:     v2.0                                                           |
| Web:         https://solids4foam.github.io                                  |
| Disclaimer:  This offering is not approved or endorsed by OpenCFD Limited,  |
|              producer and distributor of the OpenFOAM software via          |
|              www.openfoam.com](https://www.openfoam.com), and owner of the  |
|              OPENFOAM® and OpenCFD® trade marks.                            |
\*---------------------------------------------------------------------------*/
FoamFile
{
    version     2.0;
    format      ascii;
    class       dictionary;
    location    "constant/polyMesh";
    object      blockMeshDict;
}
// * * * * * * * * * * * * * * * * * * * * * * * * * * * * * * * * * * * * * //

convertToMeters 1;

vertices
(
    (0 0 0)
    (0.5 0 0)
    (1.0 0 0)
    (1.1 0 0)
    (6.0 0 0)
    (6.0 0.777817 0)
    (0.777817 0.777817 0)
    (0.707107 0.707107 0)
    (0.5 0.5 0)
    (6.0 6.0 0)
    (0.777817 6 0)
    (0 6 0)
    (0 1.1 0)
    (0 1.0 0)
    (0 0.5 0)

    (0 0 5.0)
    (0.5 0 5.0)
    (1.0 0 5.0)
    (1.1 0 5.0)
    (6.0 0 5.0)
    (6.0 0.777817 5.0)
    (0.777817 0.777817 5.00)
    (0.707107 0.707107 5.0)
    (0.5 0.5 5.0)
    (6.0 6.0 5.0)
    (0.777817 6 5.0)
    (0 6 5.0)
    (0 1.1 5.0)
    (0 1.0 5.0)
    (0 0.5 5.0)

    (0 0 6.0)
    (0.5 0 6.0)
    (1.0 0 6.0)
    (1.1 0 6.0)
    (6.0 0 6.0)
    (6.0 0.777817 6.0)
    (0.777817 0.777817 6.0)
    (0.707107 0.707107 6.0)
    (0.5 0.5 6.0)
    (6.0 6.0 6.0)
    (0.777817 6 6.0)
    (0 6 6.0)
    (0 1.1 6.0)
    (0 1.0 6.0)
    (0 0.5 6.0)
);

blocks
(
    hex (0 1 8 14 15 16 23 29) (10 10 20) simpleGrading (1 1 0.2)
    hex (1 2 7 8 16 17 22 23) (10 10 20) simpleGrading (1 1 0.2)
    hex (8 7 13 14 23 22 28 29) (10 10 20) simpleGrading (1 1 0.2)
    hex (2 3 6 7 17 18 21 22) (2 10 20) simpleGrading (1 1 0.2)
    hex (7 6 12 13 22 21 27 28) (2 10 20) simpleGrading (1 1 0.2)
    hex (3 4 5 6 18 19 20 21) (20 10 20) simpleGrading (20 1 0.2)
    hex (6 5 9 10 21 20 24 25) (20 20 20) simpleGrading (20 20 0.2)
    hex (12 6 10 11 27 21 25 26) (10 20 20) simpleGrading (1 20 0.2)

    hex (15 16 23 29 30 31 38 44) (10 10 10) simpleGrading (1 1 1)
    hex (16 17 22 23 31 32 37 38) (10 10 10) simpleGrading (1 1 1)
    hex (23 22 28 29 38 37 43 44) (10 10 10) simpleGrading (1 1 1)
    hex (18 19 20 21 33 34 35 36) (20 10 10) simpleGrading (20 1 1)
    hex (21 20 24 25 36 35 39 40) (20 20 10) simpleGrading (20 20 1)
    hex (27 21 25 26 42 36 40 41) (10 20 10) simpleGrading (1 20 1)
);

edges
(
    arc 2 7 (0.92388 0.382683 0)
    arc 7 13 (0.382683 0.92388 0)
    arc 3 6 (1.016267 0.42095 0)
    arc 6 12 (0.42095 1.016267 0)

    arc 17 22 (0.92388 0.382683 5.0)
    arc 22 28 (0.382683 0.92388 5.0)
    arc 18 21 (1.016267 0.42095 5.0)
    arc 21 27 (0.42095 1.016267 5.0)

    arc 32 37 (0.92388 0.382683 6.0)
    arc 37 43 (0.382683 0.92388 6.0)
    arc 33 36 (1.016267 0.42095 6.0)
    arc 36 42 (0.42095 1.016267 6.0)

);

patches
(
    symmetryPlane left
    (
        (14 0 15 29)
        (13 14 29 28)
        (12 13 28 27)
        (11 12 27 26)
        (29 15 30 44)
        (28 29 44 43)
        (26 27 42 41)
    )
    patch sides
    (
        (4 5 20 19)
        (5 9 24 20)
        (19 20 35 34)
        (20 24 39 35)

        (10 11 26 25)
        (9 10 25 24)
        (25 26 41 40)
        (24 25 40 39)
    )
    symmetryPlane front
    (
        (0 1 16 15)
        (1 2 17 16)
        (2 3 18 17)
        (3 4 19 18)
        (15 16 31 30)
        (16 17 32 31)
        (18 19 34 33)
    )
    patch soilBottom
    (
        (0 14 8 1)
        (14 13 7 8)
        (8 7 2 1)
        (2 7 6 3)
        (7 13 12 6)
        (6 12 11 10)
        (6 10 9 5)
        (3 6 5 4)
    )
    patch soilStructureInterface
    (
        (30 31 38 44)
        (38 31 32 37)
        (44 38 37 43)

        (32 17 22 37)
        (37 22 28 43)

        (21 36 42 27)
        (18 33 36 21)

        (22 17 18 21)
        (28 22 21 27)
    )
    patch ground
    (
        (36 40 41 42)
        (36 35 39 40)
        (33 34 35 36)
    )
);

mergePatchPairs
(
);

// ************************************************************************* //
