/*--------------------------------*- C++ -*----------------------------------*\
| =========                 |                                                 |
| \\      /  F ield         | foam-extend: Open Source CFD                    |
|  \\    /   O peration     | Version:     3.1                                |
|   \\  /    A nd           | Web:         http://www.extend-project.de       |
|    \\/     M anipulation  |                                                 |
\*---------------------------------------------------------------------------*/
FoamFile
{
    version     2.0;
    format      ascii;
    class       volVectorField;
    location    "0";
    object      D;
}
// * * * * * * * * * * * * * * * * * * * * * * * * * * * * * * * * * * * * * //

dimensions      [0 1 0 0 0 0 0];

internalField   uniform (0 0 0);

boundaryField
{
    outside
    {
        type            blockFixedDisplacement;
        value           uniform (0 0 0);
    }
    symmx
    {
        type            blockFixedDisplacementZeroShear;
        value           uniform (0 0 0);
    }
    symmy
    {
        type            blockFixedDisplacementZeroShear;
        value           uniform (0 0 0);
    }
    inside
    {
        type            blockSolidTraction;
        traction        uniform ( 0 0 0 );
        pressure        uniform 0;
        value           uniform (0 0 0);
    }
    top
    {
        type            blockSolidTraction;
        traction        uniform ( 0 0 0 );
        pressure        uniform 1e+06;
        value           uniform (0 0 0);
    }
    bottom
    {
        type            blockSolidTraction;
        traction        uniform ( 0 0 0 );
        pressure        uniform 0;
        value           uniform (0 0 0);
    }
}


// ************************************************************************* //
