/*--------------------------------*- C++ -*----------------------------------*\
| =========                 |                                                 |
| \\      /  F ield         | OpenFOAM Extend Project: Open Source CFD        |
|  \\    /   O peration     | Version:  1.6-ext                               |
|   \\  /    A nd           | Web:      www.extend-project.de                 |
|    \\/     M anipulation  |                                                 |
\*---------------------------------------------------------------------------*/
FoamFile
{
    version     2.0;
    format      ascii;
    class       dictionary;
    location    "system";
    object      fvSolution;
}
// * * * * * * * * * * * * * * * * * * * * * * * * * * * * * * * * * * * * * //

solvers
{
    // Coupled solver
    "blockDD|blockD"
    {
        // Direct solver
        //solver              EigenSparseLU;

        // Iterative solver
        solver            EigenFoamBiCGStab;
        //solver            BiCGStab;
        preconditioner    myCholesky;
        tolerance         1e-10;
        relTol            0;
        minIter           0;
        maxIter           10000;
    }

    // Segregated solver
    "D|DD"
    {
        tolerance       1e-8;
        relTol          0.1;
        maxIter         50;

        solver          PCG;
        preconditioner  FDIC;
    }
}

relaxationFactors
{
    //DEqn           0.9999;
    //D              0.9;
}

// ************************************************************************* //
