/*--------------------------------*- C++ -*----------------------------------*\
| solids4foam: solid mechanics and fluid-solid interaction simulations        |
| Version:     v2.0                                                           |
| Web:         https://solids4foam.github.io                                  |
| Disclaimer:  This offering is not approved or endorsed by OpenCFD Limited,  |
|              producer and distributor of the OpenFOAM software via          |
|              www.openfoam.com, and owner of the OPENFOAM® and OpenCFD®      |
|              trade marks.                                                   |
\*---------------------------------------------------------------------------*/
FoamFile
{
    version     2.0;
    format      ascii;
    class       dictionary;
    location    "system";
    object      faSchemes;
}
// * * * * * * * * * * * * * * * * * * * * * * * * * * * * * * * * * * * * * //

ddtSchemes
{
    ddt(w)      steadyState;
    ddt(w_0)    steadyState;
}

d2dt2Schemes
{
}

interpolationSchemes
{
}

divSchemes
{
}

gradSchemes
{
    //grad(w)    leastSquares;
    //grad(theta) leastSquares;
    grad(w)    Gauss linear;
    grad(theta) Gauss linear;
}

lnGradSchemes
{
}

laplacianSchemes
{
    laplacian(gamma,M) Gauss linear corrected;
    laplacian(((E*pow(plateThickness,3))|(12*(1-pow(nu,2)))),w) Gauss linear corrected;
}

fluxRequired
{
}

// ************************************************************************* //
