/*--------------------------------*- C++ -*----------------------------------*\
| solids4foam: solid mechanics and fluid-solid interaction simulations        |
| Version:     v2.0                                                           |
| Web:         https://solids4foam.github.io                                  |
| Disclaimer:  This offering is not approved or endorsed by OpenCFD Limited,  |
|              producer and distributor of the OpenFOAM software via          |
|              www.openfoam.com, and owner of the OPENFOAM® and OpenCFD®      |
|              trade marks.                                                   |
\*---------------------------------------------------------------------------*/
FoamFile
{
    version     2.0;
    format      ascii;
    class       dictionary;
    object      mechanicalProperties;
}
// * * * * * * * * * * * * * * * * * * * * * * * * * * * * * * * * * * * * * //

planeStress     no;

mechanical
(
    soil
    {
        type            poroMechanicalLaw;
        rho             rho [1 -3 0 0 0 0 0] 7854;
        biotCoeff       biotCoeff [0 0 0 0 0 0 0] 1.0;
        effectiveStressMechanicalLaw
        {
            type            linearElasticMohrCoulombPlastic;
            E               E [ 1 -1 -2 0 0 0 0 ] 20e6;
            nu              nu [0 0 0 0 0 0 0] 0.3;
            frictionAngle   frictionAngle [0 0 0 0 0 0 0] 30;
            dilationAngle   dilationAngle [0 0 0 0 0 0 0] 0;
            cohesion        cohesion [1 -1 -2 0 0 0 0] 1e5;
        }
    }
);

// ************************************************************************* //
