/*--------------------------------*- C++ -*----------------------------------*\
| solids4foam: solid mechanics and fluid-solid interaction simulations        |
| Version:     v2.0                                                           |
| Web:         https://solids4foam.github.io                                  |
| Disclaimer:  This offering is not approved or endorsed by OpenCFD Limited,  |
|              producer and distributor of the OpenFOAM software via          |
|              www.openfoam.com, and owner of the OPENFOAM® and OpenCFD®      |
|              trade marks.                                                   |
\*---------------------------------------------------------------------------*/
FoamFile
{
    version     2.0;
    format      ascii;
    class       dictionary;
    location    "constant";
    object      solidProperties;
}
// * * * * * * * * * * * * * * * * * * * * * * * * * * * * * * * * * * * * * //

solidModel     poroLinearGeometry;

poroLinearGeometryCoeffs
{
    // Maximum number of momentum correctors
    nCorrectors     1000;

    // Solution tolerance for displacement
    solutionTolerance 1e-06;

    // Alternative solution tolerance for displacement
    alternativeTolerance 1e-07;

    // Material law solution tolerance
    materialTolerance 1e-05;

    // Write frequency for the residuals
    infoFrequency   100;

    // Poroelastic properties: defined here for now
    hydraulicConductivity  hydraulicConductivity [0 1 -1 0 0 0 0] 0.001;
    porosity               porosity [0 0 0 0 0 0 0] 0.2;
    waterSpecificWeight    waterSpecificWeight [1 -2 -2 0 0 0 0] 1e+04;
    degreeOfSaturation     degreeOfSaturation [0 0 0 0 0 0 0] 0.98;
    waterBulkModulus       waterBulkModulus [1 -1 -2 0 0 0 0] 2e+09;
}

// ************************************************************************* //
