/*--------------------------------*- C++ -*----------------------------------*\
| =========                 |                                                 |
| \\      /  F ield         | OpenFOAM Extend Project: Open Source CFD        |
|  \\    /   O peration     | Version:  1.6-ext                               |
|   \\  /    A nd           | Web:      www.extend-project.de                 |
|    \\/     M anipulation  |                                                 |
\*---------------------------------------------------------------------------*/
FoamFile
{
    version     2.0;
    format      ascii;
    class       dictionary;
    location    "constant/polyMesh";
    object      blockMeshDict;
}
// * * * * * * * * * * * * * * * * * * * * * * * * * * * * * * * * * * * * * //

convertToMeters 0.001;

vertices
(
 (0 0 0)
 (8 0 0)
 (8 12 0)
 (0 12 0)
 (0 0 1)
 (8 0 1)
 (8 12 1)
 (0 12 1)
);

blocks
(
 hex (0 1 2 3 4 5 6 7) (24 36 1) simpleGrading (1 1 1)
);

edges
(
);

patches
(
 patch top
 (
  (2 3 7 6)
  )

 symmetryPlane left
 (
  (3 0 4 7)
  )

 patch right
 (
  (1 2 6 5)
  )

 symmetryPlane bottom
 (
  (0 1 5 4)
  )

 //patch front
 empty front
 (
  (7 6 5 4)
  )

 //symmetryPlane back
 empty back
 (
  (0 1 2 3)
  )
 );

mergePatchPairs
(
);

// ************************************************************************* //
