/*--------------------------------*- C++ -*----------------------------------*\
| solids4foam: solid mechanics and fluid-solid interaction simulations        |
| Version:     v2.0                                                           |
| Web:         https://solids4foam.github.io                                  |
| Disclaimer:  This offering is not approved or endorsed by OpenCFD Limited,  |
|              producer and distributor of the OpenFOAM software via          |
|              www.openfoam.com, and owner of the OPENFOAM® and OpenCFD®      |
|              trade marks.                                                   |
\*---------------------------------------------------------------------------*/
FoamFile
{
    version     2.0;
    format      ascii;
    class       dictionary;
    object      mechanicalProperties;
}
// * * * * * * * * * * * * * * * * * * * * * * * * * * * * * * * * * * * * * //

planeStress     no;

mechanical
(
    steel
    {
        type            neoHookeanElasticMisesPlastic;
        rho             rho [ 1 -3 0 0 0 0 0 ] 7800;
        E               E [ 1 -1 -2 0 0 0 0 ] 2.069e+8;
        nu              nu [ 0 0 0 0 0 0 0 ] 0.29;
        "file|fileName" "$FOAM_CASE/constant/plasticStrainVsYieldStress";
        outOfBounds     clamp;

        // Solve a Poisson equation to calculate the hydrostatic sigma/pressure
        // field
        smoothPressure  yes;

        // Scale the amount of smoothing applied to the pressure field
        pressureSmoothingScaleFactor 100;
    }
);

// ************************************************************************* //
