/*--------------------------------*- C++ -*----------------------------------*\
| =========                 |                                                 |
| \\      /  F ield         | foam-extend: Open Source CFD                    |
|  \\    /   O peration     | Version:     4.1                                |
|   \\  /    A nd           | Web:         http://www.foam-extend.org         |
|    \\/     M anipulation  |                                                 |
\*---------------------------------------------------------------------------*/
FoamFile
{
    version     2.0;
    format      ascii;
    class       dictionary;
    location    "system";
    object      fvSchemes;
}
// * * * * * * * * * * * * * * * * * * * * * * * * * * * * * * * * * * * * * //

ddtSchemes
{
	default		steadyState;
}

d2dt2Schemes
{
	default		steadyState;
}

gradSchemes
{
	default		Gauss linear;
	//default		leastSquares;
}

divSchemes
{
	default		Gauss linear;
}

laplacianSchemes
{
	default		Gauss linear uncorrected;
}

snGradSchemes
{
	default		uncorrected;
}

interpolationSchemes
{
	default		linear;
}


// ************************************************************************* //
