/*--------------------------------*- C++ -*----------------------------------*\
| =========                 |                                                 |
| \\      /  F ield         | foam-extend: Open Source CFD                    |
|  \\    /   O peration     | Version:     4.1                                |
|   \\  /    A nd           | Web:         http://www.foam-extend.org         |
|    \\/     M anipulation  |                                                 |
\*---------------------------------------------------------------------------*/
FoamFile
{
    version     2.0;
    format      ascii;
    class       dictionary;
    location    system;
    object      sampleDict;
}
// * * * * * * * * * * * * * * * * * * * * * * * * * * * * * * * * * * * * //

setFormat raw;

surfaceFormat vtk;

interpolationScheme cellPointFace;

fields
(
    sigma:Transformed analyticalRadialStress analyticalHoopStress T analyticalT
);

sets
(
    line
    {
        type       face;
        axis       distance;
        start (0.0 0.0 0.05);
        end   (0.5 0.5 0.05);
    }
);

surfaces
();


// *********************************************************************** //
