/*--------------------------------*- C++ -*----------------------------------*\
| solids4foam: solid mechanics and fluid-solid interaction simulations        |
| Version:     v2.0                                                           |
| Web:         https://solids4foam.github.io                                  |
| Disclaimer:  This offering is not approved or endorsed by OpenCFD Limited,  |
|              producer and distributor of the OpenFOAM software via          |
|              www.openfoam.com, and owner of the OPENFOAM® and OpenCFD®      |
|              trade marks.                                                   |
\*---------------------------------------------------------------------------*/
FoamFile
{
    version     2.0;
    format      ascii;
    class       volScalarField;
    object      damageNonLocal;
}
// * * * * * * * * * * * * * * * * * * * * * * * * * * * * * * * * * * * * * //

dimensions      [0 0 0 0 0 0 0];

internalField   uniform 0;

boundaryField
{
    down
    {
        type            symmetryPlane;
    }
    left
    {
        type            symmetryPlane;

    }
    right
    {
        type            zeroGradient;
        //traction        uniform ( 0 0 0 );
        //pressure        uniform 0;
        //value           uniform (0 0 0);
    }
    up
    {
       type  zeroGradient;
       //value uniform (0 51e-6 0);
    }
    notchedFace
    {
        type          zeroGradient;
//  uniform ( 0 0 0 );
        //pressure        uniform 0;
        //value           uniform (0 0 0);
    }
    front
    {
        type          zeroGradient;
    }
    back
    {
        type          zeroGradient;
    }
}

// ************************************************************************* //
