/*--------------------------------*- C++ -*----------------------------------*\
| =========                 |                                                 |
| \\      /  F ield         | foam-extend: Open Source CFD                    |
|  \\    /   O peration     | Version:     3.2                                |
|   \\  /    A nd           | Web:         http://www.foam-extend.org         |
|    \\/     M anipulation  | For copyright notice see file Copyright         |
\*---------------------------------------------------------------------------*/
FoamFile
{
    version     2.0;
    format      ascii;
    class       polyBoundaryMesh;
    location    "constant/polyMesh";
    object      boundary;
}
// * * * * * * * * * * * * * * * * * * * * * * * * * * * * * * * * * * * * * //

7
(
    symmPlane
    {
        type            symmetryPlane;
        nFaces          12;
        startFace       287;
    }
    dieContact
    {
        type            patch;
        nFaces          25;
        startFace       299;
    }
    billetContact
    {
        type            patch;
        nFaces          24;
        startFace       324;
    }
    loading
    {
        type            patch;
        nFaces          24;
        startFace       348;
    }
    back
    {
        type            wedge;
        nFaces          168;
        startFace       372;
    }
    front
    {
        type            wedge;
        nFaces          168;
        startFace       540;
    }
    axis
    {
        type            empty;
        nFaces          0;
        startFace       708;
    }
)

// ************************************************************************* //
