/*--------------------------------*- C++ -*----------------------------------*\
| solids4foam: solid mechanics and fluid-solid interaction simulations        |
| Version:     v2.0                                                           |
| Web:         https://solids4foam.github.io                                  |
| Disclaimer:  This offering is not approved or endorsed by OpenCFD Limited,  |
|              producer and distributor of the OpenFOAM software via          |
|              www.openfoam.com](https://www.openfoam.com), and owner of the  |
|              OPENFOAM® and OpenCFD® trade marks.                            |
\*---------------------------------------------------------------------------*/
FoamFile
{
    version     2.0;
    format      ascii;
    class       dictionary;
    location    "constant";
    object      solidProperties;
}
// * * * * * * * * * * * * * * * * * * * * * * * * * * * * * * * * * * * * * //

//solidModel linearGeometry;
//solidModel nonLinearGeometryUpdatedLagrangian;
//solidModel unsNonLinearGeometryUpdatedLagrangian;
//solidModel nonLinearGeometryTotalLagrangian;
//solidModel nonLinearGeometryTotalLagrangianTotalDisplacement;
solidModel unsNonLinearGeometryTotalLagrangian;

//linearGeometryCoeffs
//nonLinearGeometryTotalLagrangianCoeffs
//nonLinearGeometryTotalLagrangianTotalDisplacementCoeffs
unsNonLinearGeometryTotalLagrangianCoeffs
{
    // Maximum number of momentum correctors
    nCorrectors             1000;

    // Solution tolerance for displacement
    solutionTolerance       1e-7;

    // Relative solution tolerance for displacement in outer FSI iterations
    relConvergenceTolerance 1e-3;

    // Material law solution tolerance
    //materialTolerance       1e-05;

    // Write frequency for the residuals
    infoFrequency           1000;
}

// ************************************************************************* //
