/*--------------------------------*- C++ -*----------------------------------*\
| =========                 |                                                 |
| \\      /  F ield         | OpenFOAM Extend Project: Open Source CFD        |
|  \\    /   O peration     | Version:  1.6-ext                               |
|   \\  /    A nd           | Web:      www.extend-project.de                 |
|    \\/     M anipulation  |                                                 |
\*---------------------------------------------------------------------------*/
FoamFile
{
    version     2.0;
    format      ascii;
    class       pointVectorField;
    location    "0";
    object      pointDD;
}
// * * * * * * * * * * * * * * * * * * * * * * * * * * * * * * * * * * * * * //

dimensions      [0 1 0 0 0 0 0];

internalField   uniform (0 0 0);

boundaryField
{
    top
    {
        type           componentMixed;
        refValue       uniform ( 0 0 0 );
        refGradient    uniform ( 0 0 0 );
        valueFraction  uniform ( 0 1 0 );
        value          uniform ( 0 0 0 );
    }

    bottom
    {
        type           fixedValue;
        value          uniform ( 0 0 0 );
    }

    right
    {
        type           componentMixed;
        refValue       uniform ( 0 0 0 );
        refGradient    uniform ( 0 0 0 );
        valueFraction  uniform ( 0 1 0 );
        value          uniform ( 0 0 0 );
    }

    left
    {
        type           componentMixed;
        refValue       uniform ( 0 0 0 );
        refGradient    uniform ( 0 0 0 );
        valueFraction  uniform ( 0 1 0 );
        value          uniform ( 0 0 0 );
    }

    back
    {
        type            symmetryPlane;
    }

    front
    {
        type            symmetryPlane;
    }
}

// ************************************************************************* //
