/*--------------------------------*- C++ -*----------------------------------*\
| =========                 |                                                 |
| \\      /  F ield         | OpenFOAM Extend Project: Open Source CFD        |
|  \\    /   O peration     | Version:  1.6-ext                               |
|   \\  /    A nd           | Web:      www.extend-project.de                 |
|    \\/     M anipulation  |                                                 |
\*---------------------------------------------------------------------------*/
FoamFile
{
    version     2.0;
    format      ascii;
    class       dictionary;
    location    "system";
    object      fvSchemes;
}
// * * * * * * * * * * * * * * * * * * * * * * * * * * * * * * * * * * * * * //

d2dt2Schemes
{
    default                 Euler;
}

ddtSchemes
{
    default                 Euler;
}

gradSchemes
{
     default                none;
}

divSchemes
{
    default                 none;
    fvmDiv(sigma)           pointGaussLeastSquares;
}

laplacianSchemes
{
    default                 none;
    fvmBlockLaplacian(D)    pointGaussLeastSquares;
}

snGradSchemes
{
    default                 none;
}

interpolationSchemes
{
    default                 none;
    mu                      linear;
    lambda                  linear;
}

// ************************************************************************* //
