/*--------------------------------*- C++ -*----------------------------------*\
| solids4foam: solid mechanics and fluid-solid interaction simulations        |
| Version:     v2.0                                                           |
| Web:         https://solids4foam.github.io                                  |
| Disclaimer:  This offering is not approved or endorsed by OpenCFD Limited,  |
|              producer and distributor of the OpenFOAM software via          |
|              www.openfoam.com](https://www.openfoam.com), and owner of the  |
|              OPENFOAM® and OpenCFD® trade marks.                            |
\*---------------------------------------------------------------------------*/
FoamFile
{
    version     2.0;
    format      ascii;
    class       dictionary;
    object      blockMeshDict;
}
// * * * * * * * * * * * * * * * * * * * * * * * * * * * * * * * * * * * * * //

convertToMeters 1;

vertices
(
    (-42 -21.25 -10)
    (-8.5 -21.25 -10)
    (8.5 -21.25 -10)
    (42 -21.25 -10)
    (-42 -8.5 -10)
    (-8.5 -8.5 -10)
    (8.5 -8.5 -10)
    (42 -8.5 -10)
    (-42 8.5 -10)
    (-8.5 8.5 -10)
    (8.5 8.5 -10)
    (42 8.5 -10)
   (-42 21.25 -10)
    (-8.5 21.25 -10)
    (8.5 21.25 -10)
    (42 21.25 -10)

    (-42 -21.25 0)
    (-8.5 -21.25 0)
    (8.5 -21.25 0)
    (42 -21.25 0)
    (-42 -8.5 0)
    (-8.5 -8.5 0)
    (8.5 -8.5 0)
    (42 -8.5 0)
    (-42 8.5 0)
    (-8.5 8.5 0)
    (8.5 8.5 0)
    (42 8.5 0)
   (-42 21.25 0)
    (-8.5 21.25 0)
    (8.5 21.25 0)
    (42 21.25 0)
);

blocks
(
    hex (0 1 5 4 16 17 21 20) (25 15 7) simpleGrading (0.5 0.5 .25)
    hex (1 2 6 5 17 18 22 21) (25 15 7) simpleGrading (1 0.5 .25)
    hex (2 3 7 6 18 19 23 22) (25 15 7) simpleGrading (2 0.5 .25)
    hex (4 5 9 8 20 21 25 24) (25 25 7) simpleGrading (0.5 1 .25)
    hex (5 6 10 9 21 22 26 25) (25 25 7) simpleGrading (1 1 .25)
    hex (6 7 11 10 22 23 27 26) (25 25 7) simpleGrading (2 1 .25)
    hex (8 9 13 12 24 25 29 28) (25 15 7) simpleGrading (0.5 2 .25)
    hex (9 10 14 13 25 26 30 29) (25 15 7) simpleGrading (1 2 .25)
    hex (10 11 15 14 26 27 31 30) (25 15 7) simpleGrading (2 2 .25)

    // hex (0 1 5 4 16 17 21 20) (50 30 15) simpleGrading (0.5 0.5 .25)
    // hex (1 2 6 5 17 18 22 21) (50 30 15) simpleGrading (1 0.5 .25)
    // hex (2 3 7 6 18 19 23 22) (50 30 15) simpleGrading (2 0.5 .25)
    // hex (4 5 9 8 20 21 25 24) (50 50 15) simpleGrading (0.5 1 .25)
    // hex (5 6 10 9 21 22 26 25) (50 50 15) simpleGrading (1 1 .25)
    // hex (6 7 11 10 22 23 27 26) (50 50 15) simpleGrading (2 1 .25)
    // hex (8 9 13 12 24 25 29 28) (50 30 15) simpleGrading (0.5 2 .25)
    // hex (9 10 14 13 25 26 30 29) (50 30 15) simpleGrading (1 2 .25)
    // hex (10 11 15 14 26 27 31 30) (50 30 15) simpleGrading (2 2 .25)
);

edges
(
);

patches
(
    patch seabed
    (
	(16 17 21 20)
	(17 18 22 21)
	(18 19 23 22)
	(20 21 25 24)
	(22 23 27 26)
	(24 25 29 28)
	(25 26 30 29)
	(26 27 31 30)
	(21 22 26 25)
    )
    patch sides
    (
	(0 1 17 16)
	(1 2 18 17)
	(2 3 19 18)
	(3 7 23 19)
	(7 11 27 23)
	(11 15 31 27)
	(15 14 30 31)
	(14 13 29 30)
	(13 12 28 29)
	(12 8 24 28)
	(8 4 20 24)
	(4 0 16 20)	
    )
    patch bottom
    (
	(0 4 5 1)
	(1 5 6 2)
	(2 6 7 3)
	(4 8 9 5)
	(5 9 10 6)
	(6 10 11 7)
	(8 12 13 9)
	(9 13 14 10)
	(10 14 15 11)
    )
);

mergePatchPairs
(
);

// ************************************************************************* //
