/*--------------------------------*- C++ -*----------------------------------*\
| =========                 |                                                 |
| \\      /  F ield         | OpenFOAM Extend Project: Open Source CFD        |
|  \\    /   O peration     | Version:  1.6-ext                               |
|   \\  /    A nd           | Web:      www.extend-project.de                 |
|    \\/     M anipulation  |                                                 |
\*---------------------------------------------------------------------------*/
FoamFile
{
    version     2.0;
    format      ascii;
    class       volVectorField;
    location    "0";
    object      D;
}
// * * * * * * * * * * * * * * * * * * * * * * * * * * * * * * * * * * * * * //

dimensions      [0 1 0 0 0 0 0];

internalField   uniform (0 0 0);

boundaryField
{
    left
    {
        type            solidSymmetry;
        patchType       symmetryPlane;
        value           uniform (0 0 0);
    }

    front
    {
        type            solidSymmetry;
        patchType       symmetryPlane;
        value           uniform (0 0 0);
    }

    sides
    {
        type            fixedDisplacementZeroShear;
        value           uniform (0 0 0);
    }

    soilStructureInterface
    {
        type            fixedDisplacement;
        displacementSeries
        {
            "fileName|file"    "$FOAM_CASE/constant/timeVsDisp";
            outOfBounds clamp;
        }
        value           uniform (0 0 0);
    }

    soilBottom
    {
        type            fixedDisplacement;
        value           uniform (0 0 0);
    }

    ground
    {
        type            solidTraction;
        traction        uniform (0 0 0);
        pressure        uniform 0;
        value           uniform (0 0 0);
    }

}

// ************************************************************************* //
