/*--------------------------------*- C++ -*----------------------------------*\
| =========                 |                                                 |
| \\      /  F ield         | OpenFOAM Extend Project: Open Source CFD        |
|  \\    /   O peration     | Version:  1.6-ext                               |
|   \\  /    A nd           | Web:      www.extend-project.de                 |
|    \\/     M anipulation  |                                                 |
\*---------------------------------------------------------------------------*/
FoamFile
{
    version     2.0;
    format      ascii;
    class       volScalarField;
    location    "0";
    object      p;
}
// * * * * * * * * * * * * * * * * * * * * * * * * * * * * * * * * * * * * * //

dimensions      [1 -1 -2 0 0 0 0];

internalField   uniform 0;

boundaryField
{
    left
    {
        type            symmetryPlane;
    }

    front
    {
        type            symmetryPlane;
    }

    sides
    {
        type            zeroGradient;
    }

    soilStructureInterface
    {
        type            zeroGradient;
    }

    soilBottom
    {
        type            zeroGradient;
    }

    ground
    {
        type            fixedValue;
        value           uniform 0;
    }

}

// ************************************************************************* //
