/*--------------------------------*- C++ -*----------------------------------*\
| =========                 |                                                 |
| \\      /  F ield         | foam-extend: Open Source CFD                    |
|  \\    /   O peration     | Version:     3.0                                |
|   \\  /    A nd           | Web:         http://www.extend-project.de       |
|    \\/     M anipulation  |                                                 |
\*---------------------------------------------------------------------------*/
FoamFile
{
    version     2.0;
    format      ascii;
    class       dictionary;
    object      mechanicalProperties;
}
// * * * * * * * * * * * * * * * * * * * * * * * * * * * * * * * * * * * * * //

planeStress     no;

mechanical
(
    rubber
    {
        type            incompressibleMooneyRivlin;

        rho             rho [1 -3 0 0 0 0 0] 1000;
        K               K [1 -1 -2 0 0 0 0] 1e+10;
        c10             c10 [1 -1 -2 0 0 0 0] 80e+6;
        c01             c01 [1 -1 -2 0 0 0 0] 20e+6;
        c11             c11 [1 -1 -2 0 0 0 0] 40e+6;

        // To solve pressure Poisson equation
        solvePressureEqn                yes;

        // Pressure smoothing scale factor
        pressureSmoothingScaleFactor 100;
    }
);

// ************************************************************************* //
