/*--------------------------------*- C++ -*----------------------------------*\
| =========                 |                                                 |
| \\      /  F ield         | OpenFOAM Extend Project: Open Source CFD        |
|  \\    /   O peration     | Version:  1.6-ext                               |
|   \\  /    A nd           | Web:      www.extend-project.de                 |
|    \\/     M anipulation  |                                                 |
\*---------------------------------------------------------------------------*/
FoamFile
{
    version     2.0;
    format      ascii;
    class       volVectorField;
    location    "0";
    object      DD_0_0;
}
// * * * * * * * * * * * * * * * * * * * * * * * * * * * * * * * * * * * * * //

dimensions      [0 1 0 0 0 0 0];

internalField   uniform (0 0 0);

boundaryField
{
    loading
    {
        type            calculated;
        value           uniform ( 0 0 0 );
    }

    billetContact
    {
        type            calculated;
        value           uniform (0 0 0);
    }

    dieContact
    {
        type            calculated;
        value           uniform (0 0 0);
    }

    left
    {
        type            calculated;
        value           uniform (0 0 0);
    }

    back
    {
        type            solidWedge;
        patchType       wedge;
        value           uniform (0 0 0);
    }

    front
    {
        type            solidWedge;
        patchType       wedge;
        value           uniform (0 0 0);
    }

    axis
    {
        type            empty;
    }
}

// ************************************************************************* //
