/*--------------------------------*- C++ -*----------------------------------*\
| solids4foam: solid mechanics and fluid-solid interaction simulations        |
| Version:     v2.0                                                           |
| Web:         https://solids4foam.github.io                                  |
| Disclaimer:  This offering is not approved or endorsed by OpenCFD Limited,  |
|              producer and distributor of the OpenFOAM software via          |
|              www.openfoam.com, and owner of the OPENFOAM® and OpenCFD®      |
|              trade marks.                                                   |
\*---------------------------------------------------------------------------*/
FoamFile
{
    version     2.0;
    format      ascii;
    class       dictionary;
    object      blockMeshDict;
}
// * * * * * * * * * * * * * * * * * * * * * * * * * * * * * * * * * * * * * //

convertToMeters 40;

vertices
(
    (0 0 0)                  // 0
    (0.003414 0 0)           // 1
    (0.002828 0.002828 0)    // 2
    (0 0.003414 0)           // 3

    (0.005 0 0)              // 4
    (0.003536 0.003536 0)    // 5
    (0 0.005 0)              // 6

    (0 0 0.0025)               // 7
    (0.003414 0 0.0025)        // 8
    (0.002828 0.002828 0.0025) // 9
    (0 0.003414 0.0025)        // 10

    (0.005 0 0.0025)           // 11
    (0.003536 0.003536 0.0025) // 12
    (0 0.005 0.0025)           // 13

	// sticker
	(0 0.005 0) 			// 14
	(0.0075 0.005 0) 		// 15
	(0.0075 0.0055 0)		// 16
	(0 0.0055 0)				// 17

	(0 0.005 0.0025) 			// 18
	(0.0075 0.005 0.0025) 		// 19
	(0.0075 0.0055 0.0025)		// 20
	(0 0.0055 0.0025)			// 21
);

blocks
(
    hex (0 1 2 3 7 8 9 10) (15 15 1) simpleGrading (1 1 1)
    hex (1 4 5 2 8 11 12 9) (10 15 1) simpleGrading (1 1 1)
    hex (3 2 5 6 10 9 12 13) (15 10 1) simpleGrading (1 1 1)

	hex (14 15 16 17 18 19 20 21) (10 1 1)  simpleGrading (1 1 1)
);

edges
(
    arc 4 5 (0.004619 0.001913 0)
    arc 5 6 (0.001913 0.004619 0)

    arc 11 12 (0.004619 0.001913 0.0025)
    arc 12 13 (0.001913 0.004619 0.0025)
);

patches
(
    empty front
    (
        (10 9 8 7)
        (13 12 9 10)
        (12 11 8 9)
		(18 19 20 21)
    )
    empty back
    (
        (0 1 2 3)
        (1 4 5 2)
        (3 2 5 6)
		(14 15 16 17)
    )
    patch cylinderContact
    (
        (13 12 5 6)
        (12 11 4 5)
    )
	patch topContact
	(
		(14 15 19 18)
	)
	patch topLoading
	(
		(16 17 21 20)
		(15 16 20 19)
	)
    symmetryPlane symmetry-x
    (
        (7 10 3 0)
        (10 13 6 3)
		(17 14 18 21)
    )
    symmetryPlane symmetry-y
    (
        (0 1 8 7)
        (1 4 11 8)
    )
);

mergePatchPairs
(
);

// ************************************************************************* //
