/*--------------------------------*- C++ -*----------------------------------*\
| =========                 |                                                 |
| \\      /  F ield         | OpenFOAM Extend Project: Open Source CFD        |
|  \\    /   O peration     | Version:  1.6-ext                               |
|   \\  /    A nd           | Web:      www.extend-project.de                 |
|    \\/     M anipulation  |                                                 |
\*---------------------------------------------------------------------------*/
FoamFile
{
    version     2.0;
    format      ascii;
    class       dictionary;
    location    "constant/polyMesh";
    object      blockMeshDict;
}
// * * * * * * * * * * * * * * * * * * * * * * * * * * * * * * * * * * * * * //

convertToMeters 0.001;

vertices
(
    (-1.414214e+02 -1.414214e+02 0.000000e+00) 	// 0
    (1.414214e+02 -1.414214e+02 0.000000e+00) 	// 1
    (1.414214e+02 1.414214e+02 0.000000e+00) 	// 2
    (-1.414214e+02 1.414214e+02 0.000000e+00) 	// 3
    (-9.899495e+01 -9.899495e+01 0.000000e+00) 	// 4
    (9.899495e+01 -9.899495e+01 0.000000e+00) 	// 5
    (9.899495e+01 9.899495e+01 0.000000e+00) 	// 6
    (-9.899495e+01 9.899495e+01 0.000000e+00) 	// 7
    (-1.414214e+02 -1.414214e+02 1.000000e+02) 	// 8
    (1.414214e+02 -1.414214e+02 1.000000e+02) 	// 9
    (1.414214e+02 1.414214e+02 1.000000e+02) 	// 10
    (-1.414214e+02 1.414214e+02 1.000000e+02) 	// 11
    (-9.899495e+01 -9.899495e+01 1.000000e+02) 	// 12
    (9.899495e+01 -9.899495e+01 1.000000e+02) 	// 13
    (9.899495e+01 9.899495e+01 1.000000e+02) 	// 14
	(-9.899495e+01 9.899495e+01 1.000000e+02) 	// 15

	// upper stiker
    (-250 200 0)	//16
    (250  200 0)	//17
    (250  220 0)	//18
    (-250 220 0)	//19

    (-250 200 100)	//20
    (250  200 100)	//21
    (250  220 100)	//22
    (-250 220 100)	//23

	// lower stiker
    (-250 -200 0)	//24
    (250  -200 0)	//25
    (250  -220 0)	//26
    (-250 -220 0)	//27

    (-250 -200 100)	//28
    (250  -200 100)	//29
    (250  -220 100)	//30
    (-250 -220 100)	//31
);

blocks
(
	hex (0 1 5 4 8  9  13 12) pipe (10 10 1)  simpleGrading (1.000000 1.200000 1.000000)
	hex (1 2 6 5 9  10 14 13) pipe (10 10 1)  simpleGrading (1.000000 1.200000 1.000000)
	hex (2 3 7 6 10 11 15 14) pipe (10 10 1)  simpleGrading (1.000000 1.200000 1.000000)
	hex (3 0 4 7 11 8  12 15) pipe (10 10 1)  simpleGrading (1.000000 1.200000 1.000000)
	hex (4 5 6 7 12 13 14 15) pipe (10 10 1)  simpleGrading (1.000000 1.000000 1.000000)

	hex (16 17 18 19 20 21 22 23) pipe (10 1 1)  simpleGrading (1.000000 1.000000 1.000000)
	hex (24 25 26 27 28 29 30 31) pipe (10 1 1)  simpleGrading (1.000000 1.000000 1.000000)
);

edges
(
	arc 0 1 (-3.673940e-14 -2.000000e+02 0.000000e+00) 
	arc 1 2 (2.000000e+02 0.000000e+00 0.000000e+00) 
	arc 2 3 (1.224647e-14 2.000000e+02 0.000000e+00) 
	arc 3 0 (-2.000000e+02 2.449294e-14 0.000000e+00) 
	arc 4 5 (-2.204364e-14 -1.200000e+02 0.000000e+00) 
	arc 5 6 (1.200000e+02 0.000000e+00 0.000000e+00) 
	arc 6 7 (7.347881e-15 1.200000e+02 0.000000e+00) 
	arc 7 4 (-1.200000e+02 1.469576e-14 0.000000e+00) 
	arc 8 9 (-3.673940e-14 -2.000000e+02 1.000000e+02) 
	arc 9 10 (2.000000e+02 0.000000e+00 1.000000e+02) 
	arc 10 11 (1.224647e-14 2.000000e+02 1.000000e+02) 
	arc 11 8 (-2.000000e+02 2.449294e-14 1.000000e+02) 
	arc 12 13 (-2.204364e-14 -1.200000e+02 1.000000e+02) 
	arc 13 14 (1.200000e+02 0.000000e+00 1.000000e+02) 
	arc 14 15 (7.347881e-15 1.200000e+02 1.000000e+02) 
	arc 15 12 (-1.200000e+02 1.469576e-14 1.000000e+02) 
);

patches
(
	patch cylinder
	(
		(0 1 9 8)
		(1 2 10 9)
		(2 3 11 10)
		(3 0 8 11)
	)
	patch top-contact
	(
		(16 17 21 20)
	)
	patch top-loading
	(
		(18 19 23 22)
		(19 16 20 23)
		(17 18 22 21)
	)
	patch bottom-contact
	(
		(24 25 29 28)
	)
	patch bottom-rigid
	(
		(26 27 31 30)
		(24 27 31 28)
		(25 26 30 29)
	)
	empty front
	(
		(0 1 5 4)
		(1 2 6 5)
		(2 3 7 6)
		(3 0 4 7)
		(4 5 6 7)
		(24 25 26 27)
		(16 17 18 19)
	)
	empty back
	(
		(8 9 13 12)
		(9 10 14 13)
		(10 11 15 14)
		(12 13 14 15)
		(11 8 12 15)
		(20 21 22 23)
		(28 29 30 31)
	)
);

mergePatchPairs
(
);

// ************************************************************************* //
