/*--------------------------------*- C++ -*----------------------------------*\
| =========                 |                                                 |
| \\      /  F ield         | foam-extend: Open Source CFD                    |
|  \\    /   O peration     | Version:     3.0                                |
|   \\  /    A nd           | Web:         http://www.extend-project.de       |
|    \\/     M anipulation  |                                                 |
\*---------------------------------------------------------------------------*/
FoamFile
{
    version     2.0;
    format      ascii;
    class       dictionary;
    object      fvSolution;
}
// * * * * * * * * * * * * * * * * * * * * * * * * * * * * * * * * * * * * * //

solvers
{
    "D|DD"
    {   
        solver          PCG;
        preconditioner  FDIC;
        tolerance       1e-09;
        relTol          0.1;
    }
}

relaxationFactors
{
    //DEqn     0.999;
    //DDEqn    0.999;
    //D        0.5;
    //DD       0.5;
}


// ************************************************************************* //
