/*--------------------------------*- C++ -*----------------------------------*\
| =========                 |                                                 |
| \\      /  F ield         | foam-extend: Open Source CFD                    |
|  \\    /   O peration     | Version:     3.0                                |
|   \\  /    A nd           | Web:         http://www.extend-project.de       |
|    \\/     M anipulation  |                                                 |
\*---------------------------------------------------------------------------*/
FoamFile
{
    version     2.0;
    format      ascii;
    class       volVectorField;
    object      D;
}
// * * * * * * * * * * * * * * * * * * * * * * * * * * * * * * * * * * * * * //

dimensions      [0 1 0 0 0 0 0];

internalField   uniform (0 0 0);

boundaryField
{
    bottom
    {
        type            empty;
    }
   	top 
    {
        type            empty;
    }
    inner-wall
    {
        type            solidTraction;
		traction		uniform (0 0 0);
        pressureSeries
        {
            "fileName|file"    "$FOAM_CASE/constant/timeVsPressure";
            outOfBounds clamp;
        }
        value           uniform (0 0 0);
    }
    outer-wall
    {
        type            solidTraction;
		traction		uniform (0 0 0);
        pressure		uniform 0;
        value           uniform (0 0 0);
    }
    symmetry-x
    {
        type             	symmetryPlane;	
    }
    symmetry-y
    {
        type             	symmetryPlane;	
    }
}

// ************************************************************************* //
