/*--------------------------------*- C++ -*----------------------------------*\
| solids4foam: solid mechanics and fluid-solid interaction simulations        |
| Version:     v2.0                                                           |
| Web:         https://solids4foam.github.io                                  |
| Disclaimer:  This offering is not approved or endorsed by OpenCFD Limited,  |
|              producer and distributor of the OpenFOAM software via          |
|              www.openfoam.com](https://www.openfoam.com), and owner of the  |
|              OPENFOAM® and OpenCFD® trade marks.                            |
\*---------------------------------------------------------------------------*/
FoamFile
{
    version     2.0;
    format      ascii;
    class       volVectorField;
    object      DD;
}
// * * * * * * * * * * * * * * * * * * * * * * * * * * * * * * * * * * * * * //

dimensions      [0 1 0 0 0 0 0];

internalField   uniform (0 0 0);

boundaryField
{
    bottom
    {
        type            empty;
    }
   	top
    {
        type            empty;
    }
    inner-wall
    {
        type            solidTraction;
        secondOrder     no;
		traction		uniform (0 0 0);
        pressureSeries
        {
            "fileName|file"    "$FOAM_CASE/constant/timeVsPressure";
            outOfBounds clamp;
        }
        value           uniform (0 0 0);
    }
    outer-wall
    {
        type            solidTraction;
		traction		uniform (0 0 0);
        secondOrder     no;
        pressure		uniform 0;
        value           uniform (0 0 0);
    }
    symmetry-x
    {
        type             	symmetryPlane;	
    }
    symmetry-y
    {
        type             	symmetryPlane;	
    }
}

// ************************************************************************* //
