/*--------------------------------*- C++ -*----------------------------------*\
| =========                 |                                                 |
| \\      /  F ield         | foam-extend: Open Source CFD                    |
|  \\    /   O peration     | Version:     3.0                                |
|   \\  /    A nd           | Web:         http://www.extend-project.de       |
|    \\/     M anipulation  |                                                 |
\*---------------------------------------------------------------------------*/
FoamFile
{
    version     2.0;
    format      ascii;
    class       dictionary;
    object      fvSchemes;
}
// * * * * * * * * * * * * * * * * * * * * * * * * * * * * * * * * * * * * * //

d2dt2Schemes
{
    default            Euler; //backward;
}

ddtSchemes
{
    default            Euler; //backward;
}

gradSchemes
{
    default            Gauss linear;
}

divSchemes
{
    default            Gauss linear;
}

laplacianSchemes
{
    default            Gauss linear corrected;
}

snGradSchemes
{
    default            corrected;
}

interpolationSchemes
{
    default            linear;
}


// ************************************************************************* //
