/*--------------------------------*- C++ -*----------------------------------*\
| solids4foam: solid mechanics and fluid-solid interaction simulations        |
| Version:     v2.0                                                           |
| Web:         https://solids4foam.github.io                                  |
| Disclaimer:  This offering is not approved or endorsed by OpenCFD Limited,  |
|              producer and distributor of the OpenFOAM software via          |
|              www.openfoam.com](https://www.openfoam.com), and owner of the  |
|              OPENFOAM® and OpenCFD® trade marks.                            |
\*---------------------------------------------------------------------------*/
FoamFile
{
    version     2.0;
    format      ascii;
    class       dictionary;
    object      blockMeshDict;
}
// * * * * * * * * * * * * * * * * * * * * * * * * * * * * * * * * * * * * * //

convertToMeters 1;

vertices
(
    (0 0 0)
    (3.5 0 0)
    (2.5 3.5 0)
    (0 3 0)
    (1 1.2 0)
    (2 1 0)
    (2 1.8 0)
    (1 2 0)

    (0 0 0.1)
    (3.5 0 0.1)
    (2.5 3.5 0.1)
    (0 3 0.1)
    (1 1.2 0.1)
    (2 1 0.1)
    (2 1.8 0.1)
    (1 2 0.1)
);

blocks
(
    hex (0 1 5 4 8 9 13 12) steel (1 1 1) simpleGrading (1 1 1)
    hex (5 1 2 6 13 9 10 14) steel (1 1 1) simpleGrading (1 1 1)
    hex (7 6 2 3 15 14 10 11) steel (1 1 1) simpleGrading (1 1 1)
    hex (0 4 7 3 8 12 15 11) steel (1 1 1) simpleGrading (1 1 1)
    hex (4 5 6 7 12 13 14 15) steel (1 1 1) simpleGrading (1 1 1)
);

edges
();

patches
(
    patch boundary
    (
        (0 1 9 8)
        (1 2 10 9)
        (2 3 11 10)
        (3 0 8 11)
    )
//     empty frontAndBack
//     (
//         ()
//     )
);

mergePatchPairs
(
);

// ************************************************************************* //
