/*--------------------------------*- C++ -*----------------------------------*\
| =========                 |                                                 |
| \\      /  F ield         | foam-extend: Open Source CFD                    |
|  \\    /   O peration     | Version:     3.0                                |
|   \\  /    A nd           | Web:         http://www.extend-project.de       |
|    \\/     M anipulation  |                                                 |
\*---------------------------------------------------------------------------*/
FoamFile
{
    version     2.0;
    format      ascii;
    class       dictionary;
    object      fvSchemes;
}
// * * * * * * * * * * * * * * * * * * * * * * * * * * * * * * * * * * * * * //

d2dt2Schemes
{
    default            steadyState;
}

ddtSchemes
{
    default            steadyState;
}

gradSchemes
{
    default            extendedLeastSquares 0;
    //default            cellLimited extendedLeastSquares 0 1;
}

divSchemes
{
    default            Gauss linear;
}

laplacianSchemes
{
    default            none;
    laplacian(DD,D)    Gauss linear corrected;
    laplacian(DDD,DD)  Gauss linear corrected;
}

snGradSchemes
{
    default            none;
    snGrad(D)          corrected;
    snGrad(DD)         corrected;
}

interpolationSchemes
{
    default            none;
    interpolate(impK)  harmonic;
    //interpolate(impK)  linear;
    interpolate(grad(D)) linear;
    interpolate(grad(DD)) linear;
    interpolate(sigma)  linear;
    interpolate(sigma0) linear;
    interpolate((grad(D)-grad(D)_0)) linear;
    interpolate(gammaStabilisation) linear;
}

// ************************************************************************* //
