/*--------------------------------*- C++ -*----------------------------------*\
| =========                 |                                                 |
| \\      /  F ield         | OpenFOAM: The Open Source CFD Toolbox           |
|  \\    /   O peration     | Version:  dev                                   |
|   \\  /    A nd           | Web:      www.OpenFOAM.org                      |
|    \\/     M anipulation  |                                                 |
\*---------------------------------------------------------------------------*/
FoamFile
{
    version     2.0;
    format      ascii;
    class       polyBoundaryMesh;
    location    "constant/polyMesh";
    object      boundary;
}
// * * * * * * * * * * * * * * * * * * * * * * * * * * * * * * * * * * * * * //

5
(
    symmx
    {
        type            symmetryPlane;
        inGroups        1(symmetryPlane);
        nFaces          250;
        startFace       25875;
    }
    symmy
    {
        type            symmetryPlane;
        inGroups        1(symmetryPlane);
        nFaces          250;
        startFace       26125;
    }
    symmz
    {
        type            symmetryPlane;
        inGroups        1(symmetryPlane);
        nFaces          250;
        startFace       26375;
    }
    inside
    {
        type            patch;
        nFaces          1875;
        startFace       26625;
    }
    outside
    {
        type            patch;
        nFaces          1875;
        startFace       28500;
    }
)

// ************************************************************************* //
