/*--------------------------------*- C++ -*----------------------------------*\
| =========                 |                                                 |
| \\      /  F ield         | foam-extend: Open Source CFD                    |
|  \\    /   O peration     | Version:     3.0                                |
|   \\  /    A nd           | Web:         http://www.extend-project.de       |
|    \\/     M anipulation  |                                                 |
\*---------------------------------------------------------------------------*/
FoamFile
{
    version     2.0;
    format      ascii;
    class       dictionary;
    object      fsiProperties;
}
// * * * * * * * * * * * * * * * * * * * * * * * * * * * * * * * * * * * * * //

fluidSolidInterface    Aitken;

AitkenCoeffs
{
    // Solid interface patch list
    solidPatch interface;

    // Fluid interface patch list
    fluidPatch interface;

    // Fixed under-relaxation factor
    // Some methods use this as the initial factor
    relaxationFactor 0.02;

    // The entire fluid domain mesh is moved when the interface moves more
    // than this limit
    interfaceDeformationLimit 0;

    // Tolerance for the FSI outer loop
    outerCorrTolerance 1e-3;

    // Maximum number of FSI outer iterations
    nOuterCorr 50;

    // Frequency at which the weights of interpolator between the fluid and
    // solid interface is updated
    // 0 means there will be no interpolator update during simulation, whereas
    // 10 means the interpolator will be updated every 10 time-steps
    interpolatorUpdateFrequency 0;

    // Enable FSI coupling
    coupled    yes;
}

// ************************************************************************* //
