/*--------------------------------*- C++ -*----------------------------------*\
| solids4foam: solid mechanics and fluid-solid interaction simulations        |
| Version:     v2.0                                                           |
| Web:         https://solids4foam.github.io                                  |
| Disclaimer:  This offering is not approved or endorsed by OpenCFD Limited,  |
|              producer and distributor of the OpenFOAM software via          |
|              www.openfoam.com, and owner of the OPENFOAM® and OpenCFD®      |
|              trade marks.                                                   |
\*---------------------------------------------------------------------------*/
FoamFile
{
    version     2.0;
    format      ascii;
    class       dictionary;
    object      blockMeshDict;
}
// * * * * * * * * * * * * * * * * * * * * * * * * * * * * * * * * * * * * * //

convertToMeters 0.001;

vertices
(
    (5 0 0)
    (10 0 0)
    (18 0 0)
    (18 10 0)
    (7.5 10 0)
    (0 10 0)
    (0 5 0)
    (3.5355339059 3.5355339059 0)

    (5 0 1)
    (10 0 1)
    (18 0 1)
    (18 10 1)
    (7.5 10 1)
    (0 10 1)
    (0 5 1)
    (3.5355339059 3.5355339059 1)
);

blocks
(
    hex (0 1 4 7 8 9 12 15) aluminium (10 10 1) simpleGrading (1 1 1)
    hex (1 2 3 4 9 10 11 12) aluminium (10 10 1) simpleGrading (1 1 1)
    hex (4 5 6 7 12 13 14 15) aluminium (10 10 1) simpleGrading (1 1 1)
);

edges
(
    arc 6 7 (1.9134171618 4.6193976626 0)
    arc 7 0 (4.6193976626 1.9134171618 0)

    arc 14 15 (1.9134171618 4.6193976626 1)
    arc 15 8 (4.6193976626 1.9134171618 1)
);

patches
(
    symmetryPlane left
    (
        (5 6 14 13)
    )
    patch right
    (
        (2 3 11 10)
    )
    symmetryPlane down
    (
        (0 1 9 8)
        (1 2 10 9)
    )
    patch up
    (
        (3 4 12 11)
        (4 5 13 12)
    )
    patch hole
    (
        (7 0 8 15)
        (6 7 15 14)
    )
    empty back
    (
        (7 4 1 0)
        (4 3 2 1)
        (7 6 5 4)
    )
    empty front
    (
        (8 9 12 15)
        (9 10 11 12)
        (12 13 14 15)
    )
);

mergePatchPairs
(
);

// ************************************************************************* //
