/*--------------------------------*- C++ -*----------------------------------*\
| =========                 |                                                 |
| \\      /  F ield         | foam-extend: Open Source CFD                    |
|  \\    /   O peration     | Version:     3.0                                |
|   \\  /    A nd           | Web:         http://www.extend-project.de       |
|    \\/     M anipulation  |                                                 |
\*---------------------------------------------------------------------------*/
FoamFile
{
    version     2.0;
    format      ascii;
    class       dictionary;
    object      mechanicalProperties;
}
// * * * * * * * * * * * * * * * * * * * * * * * * * * * * * * * * * * * * * //

planeStress no;

mechanical
(
    pipe
    {
        type            linearElastic;
        rho             rho [1 -3 0 0 0 0 0]  1200;
        E               E   [1 -1 -2 0 0 0 0] 3e5;
        nu              nu  [0 0 0 0 0 0 0]   0.3;

        // Example of a visco-elastic solid
        // type            viscousHookeanElastic;
        // rho             rho [1 -3 0 0 0 0 0] 1200;
        // EInfinity       E [1 -1 -2 0 0 0 0] 300e+3;
        // E               ( 30e+03 20e+03 10e+03 );
        // relaxationTimes ( 10 1 0.1 );
        // nu              nu [0 0 0 0 0 0 0] 0.3;
    }
);

// ************************************************************************* //
