/*--------------------------------*- C++ -*----------------------------------*\
| solids4foam: solid mechanics and fluid-solid interaction simulations        |
| Version:     v2.0                                                           |
| Web:         https://solids4foam.github.io                                  |
| Disclaimer:  This offering is not approved or endorsed by OpenCFD Limited,  |
|              producer and distributor of the OpenFOAM software via          |
|              www.openfoam.com](https://www.openfoam.com), and owner of the  |
|              OPENFOAM® and OpenCFD® trade marks.                            |
\*---------------------------------------------------------------------------*/
FoamFile
{
    version     2.0;
    format      ascii;
    class       dictionary;
    object      mechanicalProperties;
}
// * * * * * * * * * * * * * * * * * * * * * * * * * * * * * * * * * * * * * //

planeStress     no;

mechanical
(
    polymer
    {
        type            viscousHookeanElastic;
        rho             rho [1 -3 0 0 0 0 0] 7850;
        EInfinity       EInfinity [1 -1 -2 0 0 0 0] 39.58e+9;
        nu              nu [0 0 0 0 0 0 0] 0.33;
        E               (2.9318518519e9 5.8637037037e9 6.5966666667e9 18.3240740741e9);
        relaxationTimes (30 300 3000 12000);
    }
);

// ************************************************************************* //
