/*--------------------------------*- C++ -*----------------------------------*\
| =========                 |                                                 |
| \\      /  F ield         | foam-extend: Open Source CFD                    |
|  \\    /   O peration     | Version:     3.2                                |
|   \\  /    A nd           | Web:         http://www.foam-extend.org         |
|    \\/     M anipulation  | For copyright notice see file Copyright         |
\*---------------------------------------------------------------------------*/
FoamFile
{
    version     2.0;
    format      ascii;
    class       polyBoundaryMesh;
    location    "constant/polyMesh";
    object      boundary;
}
// * * * * * * * * * * * * * * * * * * * * * * * * * * * * * * * * * * * * * //

6
(
    outside
    {
        type            patch;
        nFaces          288;
        startFace       12960;
    }
    symmx
    {
        type            patch;
        nFaces          192;
        startFace       13248;
    }
    symmy
    {
        type            patch;
        nFaces          192;
        startFace       13440;
    }
    inside
    {
        type            patch;
        nFaces          288;
        startFace       13632;
    }
    top
    {
        type            patch;
        nFaces          384;
        startFace       13920;
    }
    bottom
    {
        type            patch;
        nFaces          384;
        startFace       14304;
    }
)

// ************************************************************************* //
