/*--------------------------------*- C++ -*----------------------------------*\
| solids4foam: solid mechanics and fluid-solid interaction simulations        |
| Version:     v2.0                                                           |
| Web:         https://solids4foam.github.io                                  |
| Disclaimer:  This offering is not approved or endorsed by OpenCFD Limited,  |
|              producer and distributor of the OpenFOAM software via          |
|              www.openfoam.com, and owner of the OPENFOAM® and OpenCFD®      |
|              trade marks.                                                   |
\*---------------------------------------------------------------------------*/
FoamFile
{
    version     2.0;
    format      ascii;
    class       dictionary;
    location    "constant/polyMesh";
    object      blockMeshDict;
}
// * * * * * * * * * * * * * * * * * * * * * * * * * * * * * * * * * * * * * //

convertToMeters 1;

vertices
(
 (0 0 0)
 (0.5 0 0)
 (0.5 0.5 0)
 (0 0.5 0)
 (0 0 0.5)
 (0.5 0 0.5)
 (0.5 0.5 0.5)
 (0 0.5 0.5)
);

blocks
(
 hex (0 1 2 3 4 5 6 7) (3 3 3) simpleGrading (1 1 1)
);

edges
(
);

patches
(
 patch top
 (
  (2 3 7 6)
  )

 symmetryPlane left
 (
  (3 0 4 7)
  )

 patch right
 (
  (1 2 6 5)
  )

 symmetryPlane bottom
 (
  (0 1 5 4)
  )

 patch front
 (
  (7 6 5 4)
  )

 symmetryPlane back
 (
  (0 1 2 3)
  )
 );

mergePatchPairs
(
);

// ************************************************************************* //
