/*--------------------------------*- C++ -*----------------------------------*\
| =========                 |                                                 |
| \\      /  F ield         | foam-extend: Open Source CFD                    |
|  \\    /   O peration     | Version:     3.0                                |
|   \\  /    A nd           | Web:         http://www.extend-project.de       |
|    \\/     M anipulation  |                                                 |
\*---------------------------------------------------------------------------*/
FoamFile
{
    version     2.0;
    format      ascii;
    class       dictionary;
    object      mechanicalProperties;
}
// * * * * * * * * * * * * * * * * * * * * * * * * * * * * * * * * * * * * * //

planeStress     no;

mechanical
(
    carbonFibre
    {
        type            orthotropicLinearElastic;
        rho             rho [1 -3 0 0 0 0 0] 7854;
        E1              E1 [1 -1 -2 0 0 0 0] 200e+9;
        E2              E2 [1 -1 -2 0 0 0 0] 50e+9;
        E3              E3 [1 -1 -2 0 0 0 0] 50e+9;
        nu12            nu12 [0 0 0 0 0 0 0] 0.3;
        nu23            nu23 [0 0 0 0 0 0 0] 0.3;
        nu31            nu31 [0 0 0 0 0 0 0] 0.075;
        G12             G12 [1 -1 -2 0 0 0 0] 20e+9;
        G23             G23 [1 -1 -2 0 0 0 0] 20e+9;
        G31             G31 [1 -1 -2 0 0 0 0] 20e+9;
        // Local material directions can be specified here or as fields
        // If not specified, then the Cartesian unit vectors are assumed
        //materialDirectionX (1 0 0);
        //materialDirectionY (0 1 0);
        //materialDirectionZ (0 0 1);
    }
);

// ************************************************************************* //
