/*--------------------------------*- C++ -*----------------------------------*\
| solids4foam: solid mechanics and fluid-solid interaction simulations        |
| Version:     v2.0                                                           |
| Web:         https://solids4foam.github.io                                  |
| Disclaimer:  This offering is not approved or endorsed by OpenCFD Limited,  |
|              producer and distributor of the OpenFOAM software via          |
|              www.openfoam.com, and owner of the OPENFOAM® and OpenCFD®      |
|              trade marks.                                                   |
\*---------------------------------------------------------------------------*/
FoamFile
{
    version     2.0;
    format      ascii;
    class       dictionary;
    location    "system";
    object      sampleDict;
}

// * * * * * * * * * * * * * * * * * * * * * * * * * * * * * * * * * * * * //

setFormat raw;
surfaceFormat raw;

interpolationScheme cellPoint;

// Fields to sample.
fields
(
    sigma
    analyticalStress
);

sets
(
    line
    {
        axis        xyz;
        type        midPoint;
        end       (0.2192031022 -0.2192031022 0);
        start     (0.2333452378 -0.2333452378 0);
    }
);

surfaces
(
);


// *********************************************************************** //

