/*--------------------------------*- C++ -*----------------------------------*\
| =========                 |                                                 |
| \\      /  F ield         | foam-extend: Open Source CFD                    |
|  \\    /   O peration     | Version:     4.0                                |
|   \\  /    A nd           | Web:         http://www.foam-extend.org         |
|    \\/     M anipulation  |                                                 |
\*---------------------------------------------------------------------------*/
FoamFile
{
    version     2.0;
    format      ascii;
    class       polyBoundaryMesh;
    location    "constant/polyMesh";
    object      boundary;
}
// * * * * * * * * * * * * * * * * * * * * * * * * * * * * * * * * * * * * * //

7
(
    front
    {
        type            empty;
        nFaces          535;
        startFace       1019;
    }
    back
    {
        type            empty;
        nFaces          535;
        startFace       1554;
    }
    cylinderContact
    {
        type            patch;
        nFaces          30;
        startFace       2089;
    }
    topContact
    {
        type            patch;
        nFaces          10;
        startFace       2119;
    }
    topLoading
    {
        type            patch;
        nFaces          11;
        startFace       2129;
    }
    symmetry-x
    {
        type            symmetryPlane;
        nFaces          26;
        startFace       2140;
    }
    symmetry-y
    {
        type            symmetryPlane;
        nFaces          25;
        startFace       2166;
    }
)


// ************************************************************************* //
