/*--------------------------------*- C++ -*----------------------------------*\
| solids4foam: solid mechanics and fluid-solid interaction simulations        |
| Version:     v2.0                                                           |
| Web:         https://solids4foam.github.io                                  |
| Disclaimer:  This offering is not approved or endorsed by OpenCFD Limited,  |
|              producer and distributor of the OpenFOAM software via          |
|              www.openfoam.com, and owner of the OPENFOAM® and OpenCFD®      |
|              trade marks.                                                   |
\*---------------------------------------------------------------------------*/
FoamFile
{
    version     2.0;
    format      ascii;
    class       dictionary;
    object      fvSchemes;
}
// * * * * * * * * * * * * * * * * * * * * * * * * * * * * * * * * * * * * * //

d2dt2Schemes
{
    default            none;
    d2dt2(D)           steadyState;
}

ddtSchemes
{
    default            none;
    ddt(D)             steadyState;
    ddt(T)             Euler;
}

gradSchemes
{
    default            none;
    grad(U)            leastSquares;
    grad(T)            leastSquares;
    grad(D)            leastSquares;
    grad(DD)           leastSquares;
    snGradCorr(D)      leastSquares;
    snGradCorr(DD)     leastSquares;
}

divSchemes
{
    default            none;
    div(sigma)         Gauss linear;
    div((impK*grad(D))) Gauss linear;
}

laplacianSchemes
{
    default            none;
    laplacian(DD,D)    Gauss linear corrected;
    laplacian(DDD,DD)  Gauss linear corrected;
    laplacian(k,T)     Gauss linear corrected;
}

snGradSchemes
{
    default            none;
    snGrad(D)          corrected;
    snGrad(DD)         corrected;
}

interpolationSchemes
{
    default            none;
    interpolate(impK)  linear;
    interpolate(grad(DD)) linear;
    interpolate(grad(D)) linear;
    interpolate(grad(sigmaHyd)) linear;
}

// ************************************************************************* //
