/*--------------------------------*- C++ -*----------------------------------*\
| solids4foam: solid mechanics and fluid-solid interaction simulations        |
| Version:     v2.0                                                           |
| Web:         https://solids4foam.github.io                                  |
| Disclaimer:  This offering is not approved or endorsed by OpenCFD Limited,  |
|              producer and distributor of the OpenFOAM software via          |
|              www.openfoam.com](https://www.openfoam.com), and owner of the  |
|              OPENFOAM® and OpenCFD® trade marks.                            |
\*---------------------------------------------------------------------------*/
FoamFile
{
    version     2.0;
    format      ascii;
    class       dictionary;
    object      fvSchemes;
}
// * * * * * * * * * * * * * * * * * * * * * * * * * * * * * * * * * * * * * //

ddtSchemes
{
    default backward;
}

gradSchemes
{
    default leastSquares;
}

divSchemes
{
    default none;
    div(phi,U) Gauss linearUpwind cellLimited leastSquares 1;
    div((nuEff*dev2(T(grad(U))))) Gauss linear;
    div((nuEff*dev(T(grad(U))))) Gauss linear;
}

laplacianSchemes
{
    default none;
    laplacian(nuEff,U) Gauss linear corrected;
    laplacian((1|A(U)),p) Gauss linear corrected;
    laplacian(diffusivity,cellMotionU) Gauss linear corrected;

    laplacian(rAU,p) Gauss linear corrected;
}

interpolationSchemes
{
    default linear;
    interpolate(U) skewCorrected linear;
}

snGradSchemes
{
    default corrected;
}

fluxRequired
{
    default no;
    p;
}

// ************************************************************************* //
