/*--------------------------------*- C++ -*----------------------------------*\
| =========                 |                                                 |
| \\      /  F ield         | foam-extend: Open Source CFD                    |
|  \\    /   O peration     | Version:     4.1                                |
|   \\  /    A nd           | Web:         http://www.foam-extend.org         |
|    \\/     M anipulation  |                                                 |
\*---------------------------------------------------------------------------*/
FoamFile
{
    version     2.0;
    format      ascii;
    class       polyBoundaryMesh;
    location    "constant/polyMesh";
    object      boundary;
}
// * * * * * * * * * * * * * * * * * * * * * * * * * * * * * * * * * * * * * //

6
(
    frontAndBack
    {
        type            empty;
        nFaces          1000;
        startFace       890;
    }
    fixed
    {
        type            patch;
        nFaces          10;
        startFace       1890;
    }
    displacement
    {
        type            patch;
        nFaces          10;
        startFace       1900;
    }
    zeroTraction
    {
        type            patch;
        nFaces          100;
        startFace       1910;
    }
    lowerCylContact
    {
        type            patch;
        nFaces          50;
        startFace       2010;
    }
    upperCylContact
    {
        type            patch;
        nFaces          50;
        startFace       2060;
    }
)


// ************************************************************************* //
