/*--------------------------------*- C++ -*----------------------------------*\
| =========                 |                                                 |
| \\      /  F ield         | foam-extend: Open Source CFD                    |
|  \\    /   O peration     | Version:     3.0                                |
|   \\  /    A nd           | Web:         http://www.extend-project.de       |
|    \\/     M anipulation  |                                                 |
\*---------------------------------------------------------------------------*/
FoamFile
{
    version     2.0;
    format      ascii;
    class       dictionary;
    object      mechanicalProperties;
}
// * * * * * * * * * * * * * * * * * * * * * * * * * * * * * * * * * * * * * //

planeStress     no;

mechanical
(
    soil
    {
        type            poroMechanicalLaw;
        biotCoeff       biotCoeff [0 0 0 0 0 0 0] 1.0;
        effectiveStressMechanicalLaw
        {
            type            linearElasticMohrCoulombPlastic;
            rho             rho [1 -3 0 0 0 0 0] 7854;
            E               E [ 1 -1 -2 0 0 0 0 ] 20e6;
            nu              nu [0 0 0 0 0 0 0] 0.3;
            frictionAngle   frictionAngle [0 0 0 0 0 0 0] 30;
            dilationAngle   dilationAngle [0 0 0 0 0 0 0] 0;
            cohesion        cohesion [1 -1 -2 0 0 0 0] 1e5;
        }
    }
);

// ************************************************************************* //
