/*--------------------------------*- C++ -*----------------------------------*\
| solids4foam: solid mechanics and fluid-solid interaction simulations        |
| Version:     v2.0                                                           |
| Web:         https://solids4foam.github.io                                  |
| Disclaimer:  This offering is not approved or endorsed by OpenCFD Limited,  |
|              producer and distributor of the OpenFOAM software via          |
|              www.openfoam.com, and owner of the OPENFOAM® and OpenCFD®      |
|              trade marks.                                                   |
\*---------------------------------------------------------------------------*/
FoamFile
{
    version     2.0;
    format      binary;
    class       dictionary;
    location    "constant";
    object      mechanicalProperties;
}
// * * * * * * * * * * * * * * * * * * * * * * * * * * * * * * * * * * * * * //

planeStress     no;

mechanical
(
    material
    {
        type        neoHookeanElasticMisesPlastic;
        rho         rho [ 1 -3 0 0 0 0 0 ] 7800;
        E           E [ 1 -1 -2 0 0 0 0 ] 689.5564786e6;
        nu          nu [ 0 0 0 0 0 0 0 ] 0.32;
        outOfBounds     clamp;
        "file|fileName" "$FOAM_CASE/constant/plasticStrainVsYieldStress";
        //solvePressureEqn  yes;
        //pressureSmoothingScaleFactor 100;
    }
);

// ************************************************************************* //
