/*--------------------------------*- C++ -*----------------------------------*\
| =========                 |                                                 |
| \\      /  F ield         | foam-extend: Open Source CFD                    |
|  \\    /   O peration     | Version:     4.0                                |
|   \\  /    A nd           | Web:         http://www.foam-extend.org         |
|    \\/     M anipulation  |                                                 |
\*---------------------------------------------------------------------------*/
FoamFile
{
    version     2.0;
    format      ascii;
    class       dictionary;
    location    "constant";
    object      rheologyProperties;
}
// * * * * * * * * * * * * * * * * * * * * * * * * * * * * * * * * * * * * * //

planeStress     no;

mechanical
(
    material0
    {
        type            thermoLinearElastic;
        rho             rho [1 -3 0 0 0 0 0] 7854;
        E               E [1 -1 -2 0 0 0 0] 69e+9;
        nu              nu [0 0 0 0 0 0 0] 0.33;
        alpha           alpha [0 0 0 -1 0 0 0] 2.3e-05;
        T0              T0 [0 0 0 1 0 0 0] 800;
    }
);


// ************************************************************************* //
