/*--------------------------------*- C++ -*----------------------------------*\
| solids4foam: solid mechanics and fluid-solid interaction simulations        |
| Version:     v2.0                                                           |
| Web:         https://solids4foam.github.io                                  |
| Disclaimer:  This offering is not approved or endorsed by OpenCFD Limited,  |
|              producer and distributor of the OpenFOAM software via          |
|              www.openfoam.com, and owner of the OPENFOAM® and OpenCFD®      |
|              trade marks.                                                   |
\*---------------------------------------------------------------------------*/
FoamFile
{
    version     2.0;
    format      ascii;
    class       dictionary;
    location    "constant";
    object      solidProperties;
}
// * * * * * * * * * * * * * * * * * * * * * * * * * * * * * * * * * * * * * //

//solidModel     weakThermalLinearGeometry;
solidModel     thermalLinearGeometry;
//solidModel     linearGeometryTotalDisplacement;

"linearGeometryTotalDisplacementCoeffs|thermalLinearGeometryCoeffs"
{
    // Maximum number of correctors
    nCorrectors     10000;

    // Solution tolerance
    solutionTolerance 1e-8;

    // Alternative solution tolerance
    alternativeTolerance 1e-8;

    // Write frequency for the residuals
    infoFrequency  100;

    // Set displacements of internal cells
    cellDisplacements
    {
        // Set displacement to zero for the cell closest to the centre of the
        // block
        cellDisp1
        {
            // The cell with the cloest centroid to thi point will be selected
            approximateCoordinate    (3 1 0.5);

            // The prescribed displacement can be constant or time-varying

            // Constant displacement
            displacement             (0 0 0);

            // Time-varying displacement
            // timeVaryingDisplacement
            // {
            //     "file|fileName" "$FOAM_CASE/constant/timeVsCellDisp3";
            //     outOfBounds clamp;
            // }
        }
    }
}

// ************************************************************************* //
