/*--------------------------------*- C++ -*----------------------------------*\
| =========                 |                                                 |
| \\      /  F ield         | foam-extend: Open Source CFD                    |
|  \\    /   O peration     | Version:     3.0                                |
|   \\  /    A nd           | Web:         http://www.extend-project.de       |
|    \\/     M anipulation  |                                                 |
\*---------------------------------------------------------------------------*/
FoamFile
{
    version     2.0;
    format      ascii;
    class       dictionary;
    object      mechanicalProperties;
}
// * * * * * * * * * * * * * * * * * * * * * * * * * * * * * * * * * * * * * //

planeStress     no;

mechanical
(
    punch_top
    {
        type            linearElastic;
        rho             rho [1 -3 0 0 0 0 0] 7854;
        E               E [1 -1 -2 0 0 0 0] 210e+9;
        nu              nu [0 0 0 0 0 0 0] 0.3;
    }
    punch_bottom
    {
        type            linearElastic;
        rho             rho [1 -3 0 0 0 0 0] 7854;
        E               E [1 -1 -2 0 0 0 0] 70e+9;
        nu              nu [0 0 0 0 0 0 0] 0.3;
    }
);

// ************************************************************************* //
