/*--------------------------------*- C++ -*----------------------------------*\
| =========                 |                                                 |
| \\      /  F ield         | foam-extend: Open Source CFD                    |
|  \\    /   O peration     | Version:     3.2                                |
|   \\  /    A nd           | Web:         http://www.foam-extend.org         |
|    \\/     M anipulation  | For copyright notice see file Copyright         |
\*---------------------------------------------------------------------------*/
FoamFile
{
    version     2.0;
    format      ascii;
    class       dictionary;
    location    "constant";
    object      solidProperties;
}
// * * * * * * * * * * * * * * * * * * * * * * * * * * * * * * * * * * * * * //

solidModel     linearGeometryTotalDisplacement;

linearGeometryTotalDisplacementCoeffs
{
    // Maximum number of momentum correctors
    nCorrectors     100000;

    // Solution tolerance for displacement
    solutionTolerance 1e-07;

    // Alternative solution tolerance for displacement
    //alternativeTolerance 1e-07;

    // Material law solution tolerance
    //materialTolerance 1e-05;

    // Write frequency for the residuals
    //infoFrequency   100;

    // Set displacements of internal cells
    cellDisplacements
    {
        cellDisp1
        {
            approximateCoordinate    (0.75 0.75 0);
            displacement             (1e-06 0 0);
        }
        cellDisp2
        {
            approximateCoordinate    (0.25 0.25 0);
            displacement             (1e-06 2e-6 0);
        }
        cellDisp3
        {
            approximateCoordinate    (0.75 0.25 0);
            timeVaryingDisplacement
            {
                fileName "$FOAM_CASE/constant/timeVsCellDisp3";
                outOfBounds clamp;
            }
        }
    }
}


// ************************************************************************* //
