/*--------------------------------*- C++ -*----------------------------------*\
| solids4foam: solid mechanics and fluid-solid interaction simulations        |
| Version:     v2.0                                                           |
| Web:         https://solids4foam.github.io                                  |
| Disclaimer:  This offering is not approved or endorsed by OpenCFD Limited,  |
|              producer and distributor of the OpenFOAM software via          |
|              www.openfoam.com, and owner of the OPENFOAM® and OpenCFD®      |
|              trade marks.                                                   |
\*---------------------------------------------------------------------------*/
FoamFile
{
    version     2.0;
    format      ascii;
    class       dictionary;
    location    "constant";
    object      solidProperties;
}
// * * * * * * * * * * * * * * * * * * * * * * * * * * * * * * * * * * * * * //

solidModel     linearGeometryTotalDisplacement;

linearGeometryTotalDisplacementCoeffs
{
    // Maximum number of momentum correctors
    nCorrectors     100000;

    // Solution tolerance for displacement
    solutionTolerance 1e-07;

    // Alternative solution tolerance for displacement
    //alternativeTolerance 1e-07;

    // Material law solution tolerance
    //materialTolerance 1e-05;

    // Write frequency for the residuals
    //infoFrequency   100;

    // Set displacements of internal cells
    cellDisplacements
    {
        cellDisp1
        {
            approximateCoordinate    (0.75 0.75 0);
            displacement             (1e-06 0 0);
        }
        cellDisp2
        {
            approximateCoordinate    (0.25 0.25 0);
            displacement             (1e-06 2e-6 0);
        }
        cellDisp3
        {
            approximateCoordinate    (0.75 0.25 0);
            timeVaryingDisplacement
            {
                "file|fileName" "$FOAM_CASE/constant/timeVsCellDisp3";
                outOfBounds clamp;
            }
        }
    }
}

// ************************************************************************* //
