
/*--------------------------------*- C++ -*----------------------------------*\
| =========                 |                                                 |
| \\      /  F ield         | OpenFOAM: The Open Source CFD Toolbox           |
|  \\    /   O peration     | Version:  1.7.1                                 |
|   \\  /    A nd           | Web:      www.OpenFOAM.com                      |
|    \\/     M anipulation  |                                                 |
\*---------------------------------------------------------------------------*/
FoamFile
{
    version     2.0;
    format      ascii;
    class       dictionary;
    object      blockMeshDict;
}
// * * * * * * * * * * * * * * * * * * * * * * * * * * * * * * * * * * * * * //

convertToMeters 1;

vertices        
(
    (0 0 0)
    (1 0 0)
    (5 0 0)
    (0 1 0)
    (1 1 0)
    (5 1 0)
     
    (0 0 4)
    (1 0 4)
    (5 0 4)
    (0 1 4)
    (1 1 4)
    (5 1 4)
);

blocks
(
    //hex (0 1 4 3 6 7 10 9) (5 1 20) simpleGrading (1 1 0.25)
    //hex (1 2 5 4 7 8 11 10) (20 1 20) simpleGrading (10 1 0.25)
    hex (0 1 4 3 6 7 10 9) (10 1 40) simpleGrading (1 1 1)
    hex (1 2 5 4 7 8 11 10) (40 1 40) simpleGrading (1 1 1)
);

edges           
(
);

patches         
(
    patch ground 
    (
        (7 8 11 10)
    )
    patch soilStructureInterface
    (
	  (6 7 10 9)
    )
    patch left 
    (
	(2 5 11 8)	
    )
    empty back
    (
        (5 4 10 11)
	(4 3 9 10)
    )
    empty front 
    (
	(0 1 7 6)
	(1 2 8 7)	
    )
    symmetryPlane  right
    (
        (3 0 6 9)
    )
    patch soilDomainBottom
    (
	(0 3 4 1)
	(1 4 5 2)
    )
);

mergePatchPairs 
(
);

// ************************************************************************* //
